version 3
run source_2-0-20240213-16:29:40-133925
attr configname source_2
attr datetime 20240213-16:29:40
attr datetimef 20240213-162940
attr experiment source_2
attr inifile omnetpp.ini
attr iterationvars ""
attr iterationvarsd ""
attr iterationvarsf ""
attr measurement ""
attr network Network
attr processid 133925
attr repetition 0
attr replication #0
attr resultdir results
attr runnumber 0
attr seedset 0
config image-path ../../inet4.5/images
config network Network
config sim-time-limit 1s
config description "source_2 and destination"
config *.source_2.numApps 1
config *.source_2.app[0].typename UdpSourceApp
config *.source_2.app[0].source.packetLength "int(truncnormal(800B, 200B))"
config *.source_2.app[0].source.productionInterval exponential(100us)
config *.source_2.app[0].io.destAddress "\"destination\""
config *.source_2.app[0].io.destPort 1000
config *.destination.numApps 1
config *.destination.app[0].typename UdpSinkApp
config *.destination.app[0].io.localPort 1000
config *.*.ethernet.typename EthernetLayer
config *.*.eth[*].typename LayeredEthernetInterface
config *.*.eth[*].bitrate 10Mbps

par Network.source_1.ethg$o[0].dfd typename "\"inet.node.ethernet.Eth10M\""
par Network.source_1.ethg$o[0].dfd disabled false
attr mutable ""
par Network.source_1.ethg$o[0].dfd delay 0.001s
attr mutable ""
attr unit s
par Network.source_1.ethg$o[0].dfd datarate 1e+07bps
attr mutable ""
attr unit bps
par Network.source_1.ethg$o[0].dfd ber 0
attr mutable ""
par Network.source_1.ethg$o[0].dfd per 0
attr mutable ""
par Network.source_1.ethg$o[0].dfd length 5m
attr unit m
par Network.switch_1.ethg$o[0].dfd typename "\"inet.node.ethernet.Eth10M\""
par Network.switch_1.ethg$o[0].dfd disabled false
attr mutable ""
par Network.switch_1.ethg$o[0].dfd delay 0.001s
attr mutable ""
attr unit s
par Network.switch_1.ethg$o[0].dfd datarate 1e+07bps
attr mutable ""
attr unit bps
par Network.switch_1.ethg$o[0].dfd ber 0
attr mutable ""
par Network.switch_1.ethg$o[0].dfd per 0
attr mutable ""
par Network.switch_1.ethg$o[0].dfd length 5m
attr unit m
par Network.source_2.ethg$o[0].channel typename "\"inet.node.ethernet.Eth10M\""
par Network.source_2.ethg$o[0].channel disabled false
attr mutable ""
par Network.source_2.ethg$o[0].channel delay 0.005s
attr mutable ""
attr unit s
par Network.source_2.ethg$o[0].channel datarate 1e+07bps
attr mutable ""
attr unit bps
par Network.source_2.ethg$o[0].channel ber 0
attr mutable ""
par Network.source_2.ethg$o[0].channel per 0
attr mutable ""
par Network.source_2.ethg$o[0].channel length 50m
attr unit m
par Network.switch_1.ethg$o[1].channel typename "\"inet.node.ethernet.Eth10M\""
par Network.switch_1.ethg$o[1].channel disabled false
attr mutable ""
par Network.switch_1.ethg$o[1].channel delay 0.005s
attr mutable ""
attr unit s
par Network.switch_1.ethg$o[1].channel datarate 1e+07bps
attr mutable ""
attr unit bps
par Network.switch_1.ethg$o[1].channel ber 0
attr mutable ""
par Network.switch_1.ethg$o[1].channel per 0
attr mutable ""
par Network.switch_1.ethg$o[1].channel length 50m
attr unit m
par Network.switch_2.ethg$o[0].channel typename "\"inet.node.ethernet.Eth10M\""
par Network.switch_2.ethg$o[0].channel disabled false
attr mutable ""
par Network.switch_2.ethg$o[0].channel delay 0.001s
attr mutable ""
attr unit s
par Network.switch_2.ethg$o[0].channel datarate 1e+07bps
attr mutable ""
attr unit bps
par Network.switch_2.ethg$o[0].channel ber 0
attr mutable ""
par Network.switch_2.ethg$o[0].channel per 0
attr mutable ""
par Network.switch_2.ethg$o[0].channel length 5m
attr unit m
par Network.destination.ethg$o[0].channel typename "\"inet.node.ethernet.Eth10M\""
par Network.destination.ethg$o[0].channel disabled false
attr mutable ""
par Network.destination.ethg$o[0].channel delay 0.001s
attr mutable ""
attr unit s
par Network.destination.ethg$o[0].channel datarate 1e+07bps
attr mutable ""
attr unit bps
par Network.destination.ethg$o[0].channel ber 0
attr mutable ""
par Network.destination.ethg$o[0].channel per 0
attr mutable ""
par Network.destination.ethg$o[0].channel length 5m
attr unit m
par Network.switch_2.ethg$o[1].channel typename "\"inet.node.ethernet.Eth10M\""
par Network.switch_2.ethg$o[1].channel disabled false
attr mutable ""
par Network.switch_2.ethg$o[1].channel delay 0.001s
attr mutable ""
attr unit s
par Network.switch_2.ethg$o[1].channel datarate 1e+07bps
attr mutable ""
attr unit bps
par Network.switch_2.ethg$o[1].channel ber 0
attr mutable ""
par Network.switch_2.ethg$o[1].channel per 0
attr mutable ""
par Network.switch_2.ethg$o[1].channel length 5m
attr unit m
par Network.source_3.ethg$o[0].channel typename "\"inet.node.ethernet.Eth10M\""
par Network.source_3.ethg$o[0].channel disabled false
attr mutable ""
par Network.source_3.ethg$o[0].channel delay 0.001s
attr mutable ""
attr unit s
par Network.source_3.ethg$o[0].channel datarate 1e+07bps
attr mutable ""
attr unit bps
par Network.source_3.ethg$o[0].channel ber 0
attr mutable ""
par Network.source_3.ethg$o[0].channel per 0
attr mutable ""
par Network.source_3.ethg$o[0].channel length 5m
attr unit m
par Network.switch_1.ethg$o[2].channel typename "\"inet.node.ethernet.Eth10M\""
par Network.switch_1.ethg$o[2].channel disabled false
attr mutable ""
par Network.switch_1.ethg$o[2].channel delay 0.01s
attr mutable ""
attr unit s
par Network.switch_1.ethg$o[2].channel datarate 1e+07bps
attr mutable ""
attr unit bps
par Network.switch_1.ethg$o[2].channel ber 0
attr mutable ""
par Network.switch_1.ethg$o[2].channel per 0
attr mutable ""
par Network.switch_1.ethg$o[2].channel length 100m
attr unit m
par Network.switch_2.ethg$o[2].channel typename "\"inet.node.ethernet.Eth10M\""
par Network.switch_2.ethg$o[2].channel disabled false
attr mutable ""
par Network.switch_2.ethg$o[2].channel delay 0.01s
attr mutable ""
attr unit s
par Network.switch_2.ethg$o[2].channel datarate 1e+07bps
attr mutable ""
attr unit bps
par Network.switch_2.ethg$o[2].channel ber 0
attr mutable ""
par Network.switch_2.ethg$o[2].channel per 0
attr mutable ""
par Network.switch_2.ethg$o[2].channel length 100m
attr unit m
par Network.visualizer.sceneVisualizer typename "\"inet.visualizer.canvas.scene.SceneCanvasVisualizer\""
par Network.visualizer.sceneVisualizer visualizationTargetModule "\"^.^\""
par Network.visualizer.sceneVisualizer visualizationSubjectModule "\"^.^\""
par Network.visualizer.sceneVisualizer tags "\"\""
par Network.visualizer.sceneVisualizer physicalEnvironmentModule "\"physicalEnvironment\""
par Network.visualizer.sceneVisualizer networkNodeVisualizerModule "\"^.networkNodeVisualizer\""
par Network.visualizer.sceneVisualizer axisLength "nan m"
attr mutable ""
attr unit m
par Network.visualizer.sceneVisualizer animationSpeed 0
par Network.visualizer.sceneVisualizer sceneMinX "nan m"
attr unit m
par Network.visualizer.sceneVisualizer sceneMinY "nan m"
attr unit m
par Network.visualizer.sceneVisualizer sceneMinZ "nan m"
attr unit m
par Network.visualizer.sceneVisualizer sceneMaxX "nan m"
attr unit m
par Network.visualizer.sceneVisualizer sceneMaxY "nan m"
attr unit m
par Network.visualizer.sceneVisualizer sceneMaxZ "nan m"
attr unit m
par Network.visualizer.sceneVisualizer zIndex 0
par Network.visualizer.sceneVisualizer viewAngle "\"x right y down z out\""
attr mutable ""
par Network.visualizer.sceneVisualizer viewScale "\"1 1\""
attr mutable ""
par Network.visualizer.sceneVisualizer viewTranslation "\"0 0\""
attr mutable ""
par Network.visualizer.sceneVisualizer descriptionFigure "\"\""
par Network.visualizer.physicalEnvironmentVisualizer typename "\"inet.visualizer.canvas.environment.PhysicalEnvironmentCanvasVisualizer\""
par Network.visualizer.physicalEnvironmentVisualizer visualizationTargetModule "\"^.^\""
par Network.visualizer.physicalEnvironmentVisualizer visualizationSubjectModule "\"^.^\""
par Network.visualizer.physicalEnvironmentVisualizer tags "\"\""
par Network.visualizer.physicalEnvironmentVisualizer physicalEnvironmentModule "\"physicalEnvironment\""
par Network.visualizer.physicalEnvironmentVisualizer displayObjects true
par Network.visualizer.physicalEnvironmentVisualizer zIndex 0
par Network.visualizer.networkNodeVisualizer typename "\"inet.visualizer.canvas.scene.NetworkNodeCanvasVisualizer\""
par Network.visualizer.networkNodeVisualizer visualizationTargetModule "\"^.^\""
par Network.visualizer.networkNodeVisualizer visualizationSubjectModule "\"^.^\""
par Network.visualizer.networkNodeVisualizer tags "\"\""
par Network.visualizer.networkNodeVisualizer nodeFilter "\"*\""
attr mutable ""
par Network.visualizer.networkNodeVisualizer annotationSpacing 4
par Network.visualizer.networkNodeVisualizer placementPenalty 10
par Network.visualizer.networkNodeVisualizer zIndex 0
par Network.visualizer.networkConnectionVisualizer typename "\"inet.visualizer.canvas.scene.NetworkConnectionCanvasVisualizer\""
par Network.visualizer.networkConnectionVisualizer visualizationTargetModule "\"^.^\""
par Network.visualizer.networkConnectionVisualizer visualizationSubjectModule "\"^.^\""
par Network.visualizer.networkConnectionVisualizer tags "\"\""
par Network.visualizer.networkConnectionVisualizer displayNetworkConnections true
par Network.visualizer.networkConnectionVisualizer nodeFilter "\"\""
attr mutable ""
par Network.visualizer.networkConnectionVisualizer lineColor "\"black\""
par Network.visualizer.networkConnectionVisualizer lineStyle "\"solid\""
par Network.visualizer.networkConnectionVisualizer lineWidth 1
par Network.visualizer.networkConnectionVisualizer zIndex 0
par Network.visualizer.mobilityVisualizer typename "\"inet.visualizer.canvas.mobility.MobilityCanvasVisualizer\""
par Network.visualizer.mobilityVisualizer visualizationTargetModule "\"^.^\""
par Network.visualizer.mobilityVisualizer visualizationSubjectModule "\"^.^\""
par Network.visualizer.mobilityVisualizer tags "\"\""
par Network.visualizer.mobilityVisualizer networkNodeVisualizerModule "\"^.networkNodeVisualizer\""
par Network.visualizer.mobilityVisualizer displayMobility true
par Network.visualizer.mobilityVisualizer animationSpeed 0
par Network.visualizer.mobilityVisualizer moduleFilter "\"**.mobility\""
attr mutable ""
par Network.visualizer.mobilityVisualizer displayPositions false
par Network.visualizer.mobilityVisualizer positionCircleRadius 4
par Network.visualizer.mobilityVisualizer positionCircleLineWidth 1
par Network.visualizer.mobilityVisualizer positionCircleLineColor "\"dark\""
attr enum light,dark
par Network.visualizer.mobilityVisualizer positionCircleFillColor "\"dark\""
attr enum light,dark
par Network.visualizer.mobilityVisualizer displayOrientations false
par Network.visualizer.mobilityVisualizer orientationPieRadius 32
par Network.visualizer.mobilityVisualizer orientationPieSize 0.2
par Network.visualizer.mobilityVisualizer orientationPieOpacity 0.25
par Network.visualizer.mobilityVisualizer orientationLineColor "\"black\""
par Network.visualizer.mobilityVisualizer orientationLineStyle "\"solid\""
par Network.visualizer.mobilityVisualizer orientationLineWidth 1
par Network.visualizer.mobilityVisualizer orientationFillColor "\"blue\""
par Network.visualizer.mobilityVisualizer displayVelocities false
par Network.visualizer.mobilityVisualizer velocityArrowScale 1
par Network.visualizer.mobilityVisualizer velocityLineColor "\"black\""
par Network.visualizer.mobilityVisualizer velocityLineStyle "\"solid\""
par Network.visualizer.mobilityVisualizer velocityLineWidth 1
par Network.visualizer.mobilityVisualizer displayMovementTrails false
par Network.visualizer.mobilityVisualizer movementTrailLineColor "\"dark\""
attr enum light,dark
par Network.visualizer.mobilityVisualizer movementTrailLineStyle "\"solid\""
par Network.visualizer.mobilityVisualizer movementTrailLineWidth 1
par Network.visualizer.mobilityVisualizer trailLength 100
par Network.visualizer.mobilityVisualizer zIndex 0
par Network.visualizer.statisticVisualizer typename "\"inet.visualizer.canvas.common.StatisticCanvasVisualizer\""
par Network.visualizer.statisticVisualizer visualizationTargetModule "\"^.^\""
par Network.visualizer.statisticVisualizer visualizationSubjectModule "\"^.^\""
par Network.visualizer.statisticVisualizer tags "\"\""
par Network.visualizer.statisticVisualizer networkNodeVisualizerModule "\"^.networkNodeVisualizer\""
par Network.visualizer.statisticVisualizer displayStatistics true
par Network.visualizer.statisticVisualizer signalName "\"\""
par Network.visualizer.statisticVisualizer statisticName "\"\""
par Network.visualizer.statisticVisualizer statisticUnit "\"\""
par Network.visualizer.statisticVisualizer statisticExpression "\"\""
par Network.visualizer.statisticVisualizer sourceFilter "\"**\""
attr mutable ""
par Network.visualizer.statisticVisualizer format "\"%n: %v %u\""
attr mutable ""
par Network.visualizer.statisticVisualizer unit "\"\""
par Network.visualizer.statisticVisualizer font "\"<default>\""
par Network.visualizer.statisticVisualizer textColor "\"black\""
par Network.visualizer.statisticVisualizer backgroundColor "\"white\""
par Network.visualizer.statisticVisualizer opacity 1
par Network.visualizer.statisticVisualizer placementHint "\"top\""
par Network.visualizer.statisticVisualizer placementPriority 0
par Network.visualizer.statisticVisualizer zIndex 10
par Network.visualizer.statisticVisualizer propertyName "\"\""
par Network.visualizer.statisticVisualizer propertyIndex "\"\""
par Network.visualizer.infoVisualizer typename "\"inet.visualizer.canvas.common.InfoCanvasVisualizer\""
par Network.visualizer.infoVisualizer visualizationTargetModule "\"^.^\""
par Network.visualizer.infoVisualizer visualizationSubjectModule "\"^.^\""
par Network.visualizer.infoVisualizer tags "\"\""
par Network.visualizer.infoVisualizer networkNodeVisualizerModule "\"^.networkNodeVisualizer\""
par Network.visualizer.infoVisualizer displayInfos true
par Network.visualizer.infoVisualizer modules "\"\""
attr mutable ""
par Network.visualizer.infoVisualizer format "\"%t\""
attr mutable ""
par Network.visualizer.infoVisualizer font "\"<default>\""
par Network.visualizer.infoVisualizer textColor "\"black\""
par Network.visualizer.infoVisualizer backgroundColor "\"white\""
par Network.visualizer.infoVisualizer opacity 1
par Network.visualizer.infoVisualizer placementHint "\"top\""
par Network.visualizer.infoVisualizer placementPriority 0
par Network.visualizer.infoVisualizer zIndex 10
par Network.visualizer.energyStorageVisualizer typename "\"inet.visualizer.canvas.power.EnergyStorageCanvasVisualizer\""
par Network.visualizer.energyStorageVisualizer visualizationTargetModule "\"^.^\""
par Network.visualizer.energyStorageVisualizer visualizationSubjectModule "\"^.^\""
par Network.visualizer.energyStorageVisualizer tags "\"\""
par Network.visualizer.energyStorageVisualizer networkNodeVisualizerModule "\"^.networkNodeVisualizer\""
par Network.visualizer.energyStorageVisualizer displayEnergyStorages false
par Network.visualizer.energyStorageVisualizer energyStorageFilter "\"**\""
par Network.visualizer.energyStorageVisualizer color "\"green\""
par Network.visualizer.energyStorageVisualizer width 8
par Network.visualizer.energyStorageVisualizer height 24
par Network.visualizer.energyStorageVisualizer spacing 2
par Network.visualizer.energyStorageVisualizer placementHint "\"right\""
par Network.visualizer.energyStorageVisualizer placementPriority 0
par Network.visualizer.energyStorageVisualizer zIndex 10
par Network.visualizer.mediumVisualizer typename "\"inet.visualizer.canvas.physicallayer.MediumCanvasVisualizer\""
par Network.visualizer.mediumVisualizer visualizationTargetModule "\"^.^\""
par Network.visualizer.mediumVisualizer visualizationSubjectModule "\"^.^\""
par Network.visualizer.mediumVisualizer tags "\"\""
par Network.visualizer.mediumVisualizer mediumModule "\"radioMedium\""
par Network.visualizer.mediumVisualizer networkNodeVisualizerModule "\"^.networkNodeVisualizer\""
par Network.visualizer.mediumVisualizer nodeFilter "\"*\""
attr mutable ""
par Network.visualizer.mediumVisualizer interfaceFilter "\"*\""
attr mutable ""
par Network.visualizer.mediumVisualizer packetFilter "(omnetpp::cValueHolder)holder: \"*\""
attr mutable ""
par Network.visualizer.mediumVisualizer displaySignals false
par Network.visualizer.mediumVisualizer signalColor "\"dark\""
attr enum light,dark
par Network.visualizer.mediumVisualizer signalPropagationAnimationSpeed "nan "
attr mutable ""
par Network.visualizer.mediumVisualizer signalPropagationAnimationTime 1s
attr unit s
par Network.visualizer.mediumVisualizer signalPropagationAdditionalTime 0s
attr unit s
par Network.visualizer.mediumVisualizer signalTransmissionAnimationSpeed "nan "
attr mutable ""
par Network.visualizer.mediumVisualizer signalTransmissionAnimationTime 1s
attr unit s
par Network.visualizer.mediumVisualizer signalAnimationSpeedChangeTimeMode "\"realTime\""
attr enum realTime,animationTime,simulationTime
par Network.visualizer.mediumVisualizer signalAnimationSpeedChangeTime 1s
attr unit s
par Network.visualizer.mediumVisualizer displaySignalDepartures false
par Network.visualizer.mediumVisualizer signalDepartureImage "\"misc/signal_departure.png\""
par Network.visualizer.mediumVisualizer signalDeparturePlacementHint "\"topCenter\""
par Network.visualizer.mediumVisualizer signalDeparturePlacementPriority 1
par Network.visualizer.mediumVisualizer displaySignalArrivals false
par Network.visualizer.mediumVisualizer signalArrivalImage "\"misc/signal_arrival.png\""
par Network.visualizer.mediumVisualizer signalArrivalPlacementHint "\"topCenter\""
par Network.visualizer.mediumVisualizer signalArrivalPlacementPriority -1
par Network.visualizer.mediumVisualizer displayCommunicationRanges false
par Network.visualizer.mediumVisualizer communicationRangeLineColor "\"blue\""
par Network.visualizer.mediumVisualizer communicationRangeLineStyle "\"solid\""
par Network.visualizer.mediumVisualizer communicationRangeLineWidth 1
par Network.visualizer.mediumVisualizer displayInterferenceRanges false
par Network.visualizer.mediumVisualizer interferenceRangeLineColor "\"gray\""
par Network.visualizer.mediumVisualizer interferenceRangeLineStyle "\"solid\""
par Network.visualizer.mediumVisualizer interferenceRangeLineWidth 1
par Network.visualizer.mediumVisualizer autoPowerAxis true
par Network.visualizer.mediumVisualizer signalMinPower "inf dBmW"
attr unit dBmW
par Network.visualizer.mediumVisualizer signalMaxPower 0dBmW
attr unit dBmW
par Network.visualizer.mediumVisualizer signalMinPowerDensity "inf dBmWpMHz"
attr unit dBmWpMHz
par Network.visualizer.mediumVisualizer signalMaxPowerDensity "-inf dBmWpMHz"
attr unit dBmWpMHz
par Network.visualizer.mediumVisualizer autoTimeAxis true
par Network.visualizer.mediumVisualizer signalMinTime 0s
attr unit s
par Network.visualizer.mediumVisualizer signalMaxTime 0s
attr unit s
par Network.visualizer.mediumVisualizer autoFrequencyAxis true
par Network.visualizer.mediumVisualizer signalMinFrequency "inf Hz"
attr unit Hz
par Network.visualizer.mediumVisualizer signalMaxFrequency "-inf Hz"
attr unit Hz
par Network.visualizer.mediumVisualizer displayMainPowerDensityMap false
par Network.visualizer.mediumVisualizer mainPowerDensityMapPixmapDensity 1
par Network.visualizer.mediumVisualizer mainPowerDensityMapMinX 0
par Network.visualizer.mediumVisualizer mainPowerDensityMapMaxX "nan "
par Network.visualizer.mediumVisualizer mainPowerDensityMapMinY 0
par Network.visualizer.mediumVisualizer mainPowerDensityMapMaxY "nan "
par Network.visualizer.mediumVisualizer mainPowerDensityMapZ 0
par Network.visualizer.mediumVisualizer mainPowerDensityMapFigureXTickCount 3
par Network.visualizer.mediumVisualizer mainPowerDensityMapFigureYTickCount 3
par Network.visualizer.mediumVisualizer displayPowerDensityMaps false
par Network.visualizer.mediumVisualizer powerDensityMapMode "\"auto\""
attr enum total,signal,auto
par Network.visualizer.mediumVisualizer powerDensityMapPixelMode "\"mean\""
attr enum sample,partition,mean
par Network.visualizer.mediumVisualizer powerDensityMapApproximationSize 10
par Network.visualizer.mediumVisualizer powerDensityMapCenterFrequency "nan Hz"
attr mutable ""
attr unit Hz
par Network.visualizer.mediumVisualizer powerDensityMapBandwidth 0Hz
attr mutable ""
attr unit Hz
par Network.visualizer.mediumVisualizer powerDensityMapFigureWidth 200
par Network.visualizer.mediumVisualizer powerDensityMapFigureHeight 120
par Network.visualizer.mediumVisualizer powerDensityMapPixmapWidth 200
par Network.visualizer.mediumVisualizer powerDensityMapPixmapHeight 120
par Network.visualizer.mediumVisualizer powerDensityMapZ 0
par Network.visualizer.mediumVisualizer powerDensityMapFigureXTickCount 3
par Network.visualizer.mediumVisualizer powerDensityMapFigureYTickCount 3
par Network.visualizer.mediumVisualizer displaySpectrums false
par Network.visualizer.mediumVisualizer spectrumMode "\"auto\""
attr enum total,signal,auto
par Network.visualizer.mediumVisualizer spectrumFigureWidth 200
par Network.visualizer.mediumVisualizer spectrumFigureHeight 120
par Network.visualizer.mediumVisualizer spectrumFigureXTickCount 3
par Network.visualizer.mediumVisualizer spectrumFigureYTickCount 5
par Network.visualizer.mediumVisualizer spectrumFigureInterpolationSize 5
par Network.visualizer.mediumVisualizer spectrumPlacementHint "\"bottomCenter\""
par Network.visualizer.mediumVisualizer spectrumPlacementPriority -1
par Network.visualizer.mediumVisualizer displaySpectrograms false
par Network.visualizer.mediumVisualizer spectrogramMode "\"auto\""
attr enum total,signal,auto
par Network.visualizer.mediumVisualizer spectrogramPixelMode "\"mean\""
attr enum sample,partition,mean
par Network.visualizer.mediumVisualizer spectrogramFigureWidth 200
par Network.visualizer.mediumVisualizer spectrogramFigureHeight 120
par Network.visualizer.mediumVisualizer spectrogramPixmapWidth 200
par Network.visualizer.mediumVisualizer spectrogramPixmapHeight 120
par Network.visualizer.mediumVisualizer spectrogramFigureXTickCount 3
par Network.visualizer.mediumVisualizer spectrogramFigureYTickCount 5
par Network.visualizer.mediumVisualizer spectrogramPlacementHint "\"bottomCenter\""
par Network.visualizer.mediumVisualizer spectrogramPlacementPriority -1
par Network.visualizer.mediumVisualizer zIndex 0
par Network.visualizer.mediumVisualizer signalShape "\"ring\""
attr enum ring,sphere
par Network.visualizer.mediumVisualizer signalOpacity 0.5
par Network.visualizer.mediumVisualizer signalRingCount 20
par Network.visualizer.mediumVisualizer signalRingSize 50m
attr unit m
par Network.visualizer.mediumVisualizer signalFadingDistance 50m
attr unit m
par Network.visualizer.mediumVisualizer signalFadingFactor 1.2
par Network.visualizer.mediumVisualizer signalWaveCount 20
par Network.visualizer.mediumVisualizer signalWaveLength 50m
attr unit m
par Network.visualizer.mediumVisualizer signalWaveWidth 10m
attr unit m
par Network.visualizer.mediumVisualizer signalWaveFadingAnimationSpeedFactor 1
par Network.visualizer.mediumVisualizer displayCommunicationHeat false
par Network.visualizer.obstacleLossVisualizer typename "\"inet.visualizer.canvas.physicallayer.TracingObstacleLossCanvasVisualizer\""
par Network.visualizer.obstacleLossVisualizer visualizationTargetModule "\"^.^\""
par Network.visualizer.obstacleLossVisualizer visualizationSubjectModule "\"^.^\""
par Network.visualizer.obstacleLossVisualizer tags "\"\""
par Network.visualizer.obstacleLossVisualizer displayIntersections false
par Network.visualizer.obstacleLossVisualizer intersectionLineColor "\"red\""
par Network.visualizer.obstacleLossVisualizer intersectionLineStyle "\"solid\""
par Network.visualizer.obstacleLossVisualizer intersectionLineWidth 1
par Network.visualizer.obstacleLossVisualizer displayFaceNormalVectors false
par Network.visualizer.obstacleLossVisualizer faceNormalLineColor "\"grey\""
par Network.visualizer.obstacleLossVisualizer faceNormalLineStyle "\"solid\""
par Network.visualizer.obstacleLossVisualizer faceNormalLineWidth 1
par Network.visualizer.obstacleLossVisualizer fadeOutMode "\"realTime\""
attr enum realTime,animationTime,simulationTime
par Network.visualizer.obstacleLossVisualizer fadeOutTime 1s
attr unit s
par Network.visualizer.obstacleLossVisualizer fadeOutAnimationSpeed 0
par Network.visualizer.obstacleLossVisualizer zIndex 0
par Network.visualizer.packetDropVisualizer typename "\"inet.visualizer.canvas.common.PacketDropCanvasVisualizer\""
par Network.visualizer.packetDropVisualizer visualizationTargetModule "\"^.^\""
par Network.visualizer.packetDropVisualizer visualizationSubjectModule "\"^.^\""
par Network.visualizer.packetDropVisualizer tags "\"\""
par Network.visualizer.packetDropVisualizer displayPacketDrops false
par Network.visualizer.packetDropVisualizer nodeFilter "\"*\""
attr mutable ""
par Network.visualizer.packetDropVisualizer interfaceFilter "\"*\""
attr mutable ""
par Network.visualizer.packetDropVisualizer packetFilter "(omnetpp::cValueHolder)holder: \"*\""
attr mutable ""
par Network.visualizer.packetDropVisualizer detailsFilter "\"*\""
attr mutable ""
par Network.visualizer.packetDropVisualizer icon "\"msg/packet_s\""
par Network.visualizer.packetDropVisualizer iconTintAmount 1
par Network.visualizer.packetDropVisualizer iconTintColor "\"dark\""
par Network.visualizer.packetDropVisualizer labelFormat "\"%n\""
attr mutable ""
par Network.visualizer.packetDropVisualizer labelFont "\"<default>\""
par Network.visualizer.packetDropVisualizer labelColor "\"black\""
par Network.visualizer.packetDropVisualizer fadeOutMode "\"realTime\""
attr enum realTime,animationTime,simulationTime
par Network.visualizer.packetDropVisualizer fadeOutTime 1s
attr unit s
par Network.visualizer.packetDropVisualizer fadeOutAnimationSpeed 0
par Network.visualizer.packetDropVisualizer zIndex 10
par Network.visualizer.packetDropVisualizer dx 32
par Network.visualizer.packetDropVisualizer dy 64
par Network.visualizer.packetFlowVisualizer typename "\"inet.visualizer.canvas.flow.PacketFlowCanvasVisualizer\""
par Network.visualizer.packetFlowVisualizer visualizationTargetModule "\"^.^\""
par Network.visualizer.packetFlowVisualizer visualizationSubjectModule "\"^.^\""
par Network.visualizer.packetFlowVisualizer tags "\"\""
par Network.visualizer.packetFlowVisualizer displayRoutes false
par Network.visualizer.packetFlowVisualizer startPathSignal "\"packetFlowStarted\""
par Network.visualizer.packetFlowVisualizer extendPathSignal "\"packetReceivedFromLower\""
par Network.visualizer.packetFlowVisualizer endPathSignal "\"packetFlowEnded\""
par Network.visualizer.packetFlowVisualizer nodeFilter "\"*\""
attr mutable ""
par Network.visualizer.packetFlowVisualizer packetFilter "(omnetpp::cValueHolder)holder: \"*\""
attr mutable ""
par Network.visualizer.packetFlowVisualizer lineColor "\"dark\""
attr enum light,dark
par Network.visualizer.packetFlowVisualizer lineStyle "\"dashed\""
par Network.visualizer.packetFlowVisualizer lineWidth 3
par Network.visualizer.packetFlowVisualizer lineSmooth false
par Network.visualizer.packetFlowVisualizer lineShift 16
par Network.visualizer.packetFlowVisualizer lineShiftMode "\"normal\""
par Network.visualizer.packetFlowVisualizer lineContactSpacing 3
par Network.visualizer.packetFlowVisualizer lineContactMode "\"rectangular\""
attr enum circular,rectangular
par Network.visualizer.packetFlowVisualizer labelFormat "\"%L %p pk (%l)\""
par Network.visualizer.packetFlowVisualizer labelFont "\"<default>, 8px\""
par Network.visualizer.packetFlowVisualizer labelColor "\"\""
par Network.visualizer.packetFlowVisualizer fadeOutMode "\"realTime\""
attr enum realTime,animationTime,simulationTime
par Network.visualizer.packetFlowVisualizer fadeOutTime 0s
attr unit s
par Network.visualizer.packetFlowVisualizer fadeOutAnimationSpeed 0
par Network.visualizer.packetFlowVisualizer zIndex 4
par Network.visualizer.queueVisualizer typename "\"inet.visualizer.canvas.common.QueueCanvasVisualizer\""
par Network.visualizer.queueVisualizer visualizationTargetModule "\"^.^\""
par Network.visualizer.queueVisualizer visualizationSubjectModule "\"^.^\""
par Network.visualizer.queueVisualizer tags "\"\""
par Network.visualizer.queueVisualizer networkNodeVisualizerModule "\"^.networkNodeVisualizer\""
par Network.visualizer.queueVisualizer displayQueues false
par Network.visualizer.queueVisualizer queueFilter "\"**\""
par Network.visualizer.queueVisualizer color "\"blue\""
par Network.visualizer.queueVisualizer width 8
par Network.visualizer.queueVisualizer height 24
par Network.visualizer.queueVisualizer spacing 2
par Network.visualizer.queueVisualizer placementHint "\"right\""
par Network.visualizer.queueVisualizer placementPriority 0
par Network.visualizer.queueVisualizer zIndex 10
par Network.visualizer.gateScheduleVisualizer typename "\"inet.visualizer.canvas.common.GateScheduleCanvasVisualizer\""
par Network.visualizer.gateScheduleVisualizer visualizationTargetModule "\"^.^\""
par Network.visualizer.gateScheduleVisualizer visualizationSubjectModule "\"^.^\""
par Network.visualizer.gateScheduleVisualizer tags "\"\""
par Network.visualizer.gateScheduleVisualizer networkNodeVisualizerModule "\"^.networkNodeVisualizer\""
par Network.visualizer.gateScheduleVisualizer displayGateSchedules false
par Network.visualizer.gateScheduleVisualizer labelFormat "\"%i %D\""
par Network.visualizer.gateScheduleVisualizer gateFilter "\"**\""
par Network.visualizer.gateScheduleVisualizer width 100
par Network.visualizer.gateScheduleVisualizer height 8
par Network.visualizer.gateScheduleVisualizer spacing 2
par Network.visualizer.gateScheduleVisualizer placementHint "\"right\""
par Network.visualizer.gateScheduleVisualizer placementPriority 0
par Network.visualizer.gateScheduleVisualizer displayDuration 0s
attr mutable ""
attr unit s
par Network.visualizer.gateScheduleVisualizer currentTimePosition 50
par Network.visualizer.gateScheduleVisualizer zIndex 10
par Network.visualizer.radioVisualizer typename "\"inet.visualizer.canvas.physicallayer.RadioCanvasVisualizer\""
par Network.visualizer.radioVisualizer visualizationTargetModule "\"^.^\""
par Network.visualizer.radioVisualizer visualizationSubjectModule "\"^.^\""
par Network.visualizer.radioVisualizer tags "\"\""
par Network.visualizer.radioVisualizer networkNodeVisualizerModule "\"^.networkNodeVisualizer\""
par Network.visualizer.radioVisualizer displayRadios false
par Network.visualizer.radioVisualizer displayRadioMode true
par Network.visualizer.radioVisualizer displayReceptionState true
par Network.visualizer.radioVisualizer displayTransmissionState true
par Network.visualizer.radioVisualizer displayAntennaLobes false
par Network.visualizer.radioVisualizer radioFilter "\"**\""
attr mutable ""
par Network.visualizer.radioVisualizer radioModeImages "\"block/process_vs block/timer_vs block/wrx_vs block/wtx_vs block/wrxtx_vs block/cogwheel_vs\""
par Network.visualizer.radioVisualizer receptionStateImages "\"- - misc/receiving misc/receiving\""
par Network.visualizer.radioVisualizer transmissionStateImages "\"- - misc/transmitting\""
par Network.visualizer.radioVisualizer width 16
par Network.visualizer.radioVisualizer height 16
par Network.visualizer.radioVisualizer placementHint "\"bottomRight\""
par Network.visualizer.radioVisualizer placementPriority 0
par Network.visualizer.radioVisualizer antennaLobeNormalize false
par Network.visualizer.radioVisualizer antennaLobeRelativeLabels false
par Network.visualizer.radioVisualizer antennaLobePlaneGlobal true
par Network.visualizer.radioVisualizer antennaLobePlane "\"view\""
attr enum view,xy,xz,yz
par Network.visualizer.radioVisualizer antennaLobeMode "\"logarithmic\""
attr enum logarithmic,linear
par Network.visualizer.radioVisualizer antennaLobeLogarithmicBase 10
par Network.visualizer.radioVisualizer antennaLobeLogarithmicScale 100
par Network.visualizer.radioVisualizer antennaLobeRadius 100
par Network.visualizer.radioVisualizer antennaLobeStep 10deg
attr unit deg
par Network.visualizer.radioVisualizer antennaLobeOpacity 0.25
par Network.visualizer.radioVisualizer antennaLobeLineSmooth true
par Network.visualizer.radioVisualizer antennaLobeLineColor "\"black\""
par Network.visualizer.radioVisualizer antennaLobeLineStyle "\"solid\""
par Network.visualizer.radioVisualizer antennaLobeLineWidth 1
par Network.visualizer.radioVisualizer antennaLobeFillColor "\"white\""
par Network.visualizer.radioVisualizer zIndex 10
par Network.visualizer.physicalLinkVisualizer typename "\"inet.visualizer.canvas.physicallayer.PhysicalLinkCanvasVisualizer\""
par Network.visualizer.physicalLinkVisualizer visualizationTargetModule "\"^.^\""
par Network.visualizer.physicalLinkVisualizer visualizationSubjectModule "\"^.^\""
par Network.visualizer.physicalLinkVisualizer tags "\"\""
par Network.visualizer.physicalLinkVisualizer displayLinks false
par Network.visualizer.physicalLinkVisualizer activityLevel "\"service\""
attr enum service,peer,protocol
par Network.visualizer.physicalLinkVisualizer nodeFilter "\"*\""
attr mutable ""
par Network.visualizer.physicalLinkVisualizer interfaceFilter "\"*\""
attr mutable ""
par Network.visualizer.physicalLinkVisualizer packetFilter "(omnetpp::cValueHolder)holder: \"*\""
attr mutable ""
par Network.visualizer.physicalLinkVisualizer lineColor "\"olive\""
par Network.visualizer.physicalLinkVisualizer lineStyle "\"dotted\""
par Network.visualizer.physicalLinkVisualizer lineWidth 3
par Network.visualizer.physicalLinkVisualizer lineShift 16
par Network.visualizer.physicalLinkVisualizer lineShiftMode "\"normal\""
par Network.visualizer.physicalLinkVisualizer lineContactSpacing 3
par Network.visualizer.physicalLinkVisualizer lineContactMode "\"rectangular\""
attr enum circular,rectangular
par Network.visualizer.physicalLinkVisualizer labelFormat "\"%n\""
par Network.visualizer.physicalLinkVisualizer labelFont "\"<default>, 8px\""
par Network.visualizer.physicalLinkVisualizer labelColor "\"olive\""
par Network.visualizer.physicalLinkVisualizer fadeOutMode "\"realTime\""
attr enum realTime,animationTime,simulationTime
par Network.visualizer.physicalLinkVisualizer fadeOutTime 1s
attr unit s
par Network.visualizer.physicalLinkVisualizer fadeOutAnimationSpeed 0
par Network.visualizer.physicalLinkVisualizer holdAnimationTime 0s
attr unit s
par Network.visualizer.physicalLinkVisualizer zIndex 1
par Network.visualizer.interfaceTableVisualizer typename "\"inet.visualizer.canvas.linklayer.InterfaceTableCanvasVisualizer\""
par Network.visualizer.interfaceTableVisualizer visualizationTargetModule "\"^.^\""
par Network.visualizer.interfaceTableVisualizer visualizationSubjectModule "\"^.^\""
par Network.visualizer.interfaceTableVisualizer tags "\"\""
par Network.visualizer.interfaceTableVisualizer networkNodeVisualizerModule "\"^.networkNodeVisualizer\""
par Network.visualizer.interfaceTableVisualizer displayInterfaceTables false
par Network.visualizer.interfaceTableVisualizer displayWiredInterfacesAtConnections true
par Network.visualizer.interfaceTableVisualizer displayBackground false
par Network.visualizer.interfaceTableVisualizer nodeFilter "\"*\""
attr mutable ""
par Network.visualizer.interfaceTableVisualizer interfaceFilter "\"not(lo*)\""
attr mutable ""
par Network.visualizer.interfaceTableVisualizer format "\"%N %\\\\%a%/%l\""
attr mutable ""
par Network.visualizer.interfaceTableVisualizer placementHint "\"top\""
par Network.visualizer.interfaceTableVisualizer placementPriority 0
par Network.visualizer.interfaceTableVisualizer font "\"<default>\""
par Network.visualizer.interfaceTableVisualizer textColor "\"#005030\""
par Network.visualizer.interfaceTableVisualizer backgroundColor "\"white\""
par Network.visualizer.interfaceTableVisualizer opacity 1
par Network.visualizer.interfaceTableVisualizer zIndex 10
par Network.visualizer.dataLinkVisualizer typename "\"inet.visualizer.canvas.linklayer.DataLinkCanvasVisualizer\""
par Network.visualizer.dataLinkVisualizer visualizationTargetModule "\"^.^\""
par Network.visualizer.dataLinkVisualizer visualizationSubjectModule "\"^.^\""
par Network.visualizer.dataLinkVisualizer tags "\"\""
par Network.visualizer.dataLinkVisualizer displayLinks false
par Network.visualizer.dataLinkVisualizer activityLevel "\"service\""
attr enum service,peer,protocol
par Network.visualizer.dataLinkVisualizer nodeFilter "\"*\""
attr mutable ""
par Network.visualizer.dataLinkVisualizer interfaceFilter "\"*\""
attr mutable ""
par Network.visualizer.dataLinkVisualizer packetFilter "(omnetpp::cValueHolder)holder: \"*\""
attr mutable ""
par Network.visualizer.dataLinkVisualizer lineColor "\"darkcyan\""
par Network.visualizer.dataLinkVisualizer lineStyle "\"solid\""
par Network.visualizer.dataLinkVisualizer lineWidth 3
par Network.visualizer.dataLinkVisualizer lineShift 16
par Network.visualizer.dataLinkVisualizer lineShiftMode "\"normal\""
par Network.visualizer.dataLinkVisualizer lineContactSpacing 3
par Network.visualizer.dataLinkVisualizer lineContactMode "\"rectangular\""
attr enum circular,rectangular
par Network.visualizer.dataLinkVisualizer labelFormat "\"%n\""
par Network.visualizer.dataLinkVisualizer labelFont "\"<default>, 8px\""
par Network.visualizer.dataLinkVisualizer labelColor "\"darkcyan\""
par Network.visualizer.dataLinkVisualizer fadeOutMode "\"realTime\""
attr enum realTime,animationTime,simulationTime
par Network.visualizer.dataLinkVisualizer fadeOutTime 1s
attr unit s
par Network.visualizer.dataLinkVisualizer fadeOutAnimationSpeed 0
par Network.visualizer.dataLinkVisualizer holdAnimationTime 0s
attr unit s
par Network.visualizer.dataLinkVisualizer zIndex 2
par Network.visualizer.linkBreakVisualizer typename "\"inet.visualizer.canvas.linklayer.LinkBreakCanvasVisualizer\""
par Network.visualizer.linkBreakVisualizer visualizationTargetModule "\"^.^\""
par Network.visualizer.linkBreakVisualizer visualizationSubjectModule "\"^.^\""
par Network.visualizer.linkBreakVisualizer tags "\"\""
par Network.visualizer.linkBreakVisualizer displayLinkBreaks false
par Network.visualizer.linkBreakVisualizer nodeFilter "\"*\""
attr mutable ""
par Network.visualizer.linkBreakVisualizer interfaceFilter "\"*\""
attr mutable ""
par Network.visualizer.linkBreakVisualizer packetFilter "(omnetpp::cValueHolder)holder: \"*\""
attr mutable ""
par Network.visualizer.linkBreakVisualizer icon "\"status/stop\""
par Network.visualizer.linkBreakVisualizer iconTintAmount 0
par Network.visualizer.linkBreakVisualizer iconTintColor "\"\""
par Network.visualizer.linkBreakVisualizer fadeOutMode "\"realTime\""
attr enum realTime,animationTime,simulationTime
par Network.visualizer.linkBreakVisualizer fadeOutTime 1s
attr unit s
par Network.visualizer.linkBreakVisualizer fadeOutAnimationSpeed 0
par Network.visualizer.linkBreakVisualizer zIndex 2
par Network.visualizer.ieee80211Visualizer typename "\"inet.visualizer.canvas.linklayer.Ieee80211CanvasVisualizer\""
par Network.visualizer.ieee80211Visualizer visualizationTargetModule "\"^.^\""
par Network.visualizer.ieee80211Visualizer visualizationSubjectModule "\"^.^\""
par Network.visualizer.ieee80211Visualizer tags "\"\""
par Network.visualizer.ieee80211Visualizer networkNodeVisualizerModule "\"^.networkNodeVisualizer\""
par Network.visualizer.ieee80211Visualizer displayAssociations false
par Network.visualizer.ieee80211Visualizer nodeFilter "\"*\""
attr mutable ""
par Network.visualizer.ieee80211Visualizer interfaceFilter "\"*\""
attr mutable ""
par Network.visualizer.ieee80211Visualizer minPower -85dBm
attr unit dBm
par Network.visualizer.ieee80211Visualizer maxPower -50dBm
attr unit dBm
par Network.visualizer.ieee80211Visualizer icons "\"misc/signal_power_0 misc/signal_power_1 misc/signal_power_2 misc/signal_power_3\""
par Network.visualizer.ieee80211Visualizer iconColor "\"dark\""
attr enum light,dark
par Network.visualizer.ieee80211Visualizer labelFont "\"<default>\""
par Network.visualizer.ieee80211Visualizer labelColor "\"black\""
par Network.visualizer.ieee80211Visualizer placementHint "\"top\""
par Network.visualizer.ieee80211Visualizer placementPriority 0
par Network.visualizer.ieee80211Visualizer zIndex 2
par Network.visualizer.networkRouteVisualizer typename "\"inet.visualizer.canvas.networklayer.NetworkRouteCanvasVisualizer\""
par Network.visualizer.networkRouteVisualizer visualizationTargetModule "\"^.^\""
par Network.visualizer.networkRouteVisualizer visualizationSubjectModule "\"^.^\""
par Network.visualizer.networkRouteVisualizer tags "\"\""
par Network.visualizer.networkRouteVisualizer displayRoutes false
par Network.visualizer.networkRouteVisualizer startPathSignal "\"packetReceivedFromUpper\""
par Network.visualizer.networkRouteVisualizer extendPathSignal "\"packetReceivedFromLower\""
par Network.visualizer.networkRouteVisualizer endPathSignal "\"packetSentToUpper\""
par Network.visualizer.networkRouteVisualizer nodeFilter "\"*\""
attr mutable ""
par Network.visualizer.networkRouteVisualizer packetFilter "(omnetpp::cValueHolder)holder: \"*\""
attr mutable ""
par Network.visualizer.networkRouteVisualizer lineColor "\"dark\""
attr enum light,dark
par Network.visualizer.networkRouteVisualizer lineStyle "\"solid\""
par Network.visualizer.networkRouteVisualizer lineWidth 3
par Network.visualizer.networkRouteVisualizer lineSmooth false
par Network.visualizer.networkRouteVisualizer lineShift 16
par Network.visualizer.networkRouteVisualizer lineShiftMode "\"normal\""
par Network.visualizer.networkRouteVisualizer lineContactSpacing 3
par Network.visualizer.networkRouteVisualizer lineContactMode "\"rectangular\""
attr enum circular,rectangular
par Network.visualizer.networkRouteVisualizer labelFormat "\"%n\""
par Network.visualizer.networkRouteVisualizer labelFont "\"<default>, 8px\""
par Network.visualizer.networkRouteVisualizer labelColor "\"\""
par Network.visualizer.networkRouteVisualizer fadeOutMode "\"realTime\""
attr enum realTime,animationTime,simulationTime
par Network.visualizer.networkRouteVisualizer fadeOutTime 1s
attr unit s
par Network.visualizer.networkRouteVisualizer fadeOutAnimationSpeed 0
par Network.visualizer.networkRouteVisualizer zIndex 3
par Network.visualizer.routingTableVisualizer typename "\"inet.visualizer.canvas.networklayer.RoutingTableCanvasVisualizer\""
par Network.visualizer.routingTableVisualizer visualizationTargetModule "\"^.^\""
par Network.visualizer.routingTableVisualizer visualizationSubjectModule "\"^.^\""
par Network.visualizer.routingTableVisualizer tags "\"\""
par Network.visualizer.routingTableVisualizer displayRoutingTables false
par Network.visualizer.routingTableVisualizer displayRoutesIndividually true
par Network.visualizer.routingTableVisualizer displayLabels true
par Network.visualizer.routingTableVisualizer destinationFilter "\"*\""
attr mutable ""
par Network.visualizer.routingTableVisualizer nodeFilter "\"*\""
attr mutable ""
par Network.visualizer.routingTableVisualizer lineColor "\"black\""
par Network.visualizer.routingTableVisualizer lineStyle "\"solid\""
par Network.visualizer.routingTableVisualizer lineWidth 2
par Network.visualizer.routingTableVisualizer lineShift 16
par Network.visualizer.routingTableVisualizer lineShiftMode "\"normal\""
par Network.visualizer.routingTableVisualizer lineContactSpacing 3
par Network.visualizer.routingTableVisualizer lineContactMode "\"rectangular\""
attr enum circular,rectangular
par Network.visualizer.routingTableVisualizer labelFormat "\"%d/%m -> %g (%n)\""
attr mutable ""
par Network.visualizer.routingTableVisualizer labelFont "\"<default>, 8px\""
par Network.visualizer.routingTableVisualizer labelColor "\"black\""
par Network.visualizer.routingTableVisualizer zIndex 0
par Network.visualizer.transportRouteVisualizer typename "\"inet.visualizer.canvas.transportlayer.TransportRouteCanvasVisualizer\""
par Network.visualizer.transportRouteVisualizer visualizationTargetModule "\"^.^\""
par Network.visualizer.transportRouteVisualizer visualizationSubjectModule "\"^.^\""
par Network.visualizer.transportRouteVisualizer tags "\"\""
par Network.visualizer.transportRouteVisualizer displayRoutes false
par Network.visualizer.transportRouteVisualizer startPathSignal "\"packetReceivedFromUpper\""
par Network.visualizer.transportRouteVisualizer extendPathSignal "\"packetReceivedFromLower\""
par Network.visualizer.transportRouteVisualizer endPathSignal "\"packetSentToUpper\""
par Network.visualizer.transportRouteVisualizer nodeFilter "\"*\""
attr mutable ""
par Network.visualizer.transportRouteVisualizer packetFilter "(omnetpp::cValueHolder)holder: \"*\""
attr mutable ""
par Network.visualizer.transportRouteVisualizer lineColor "\"dark\""
attr enum light,dark
par Network.visualizer.transportRouteVisualizer lineStyle "\"solid\""
par Network.visualizer.transportRouteVisualizer lineWidth 3
par Network.visualizer.transportRouteVisualizer lineSmooth false
par Network.visualizer.transportRouteVisualizer lineShift 16
par Network.visualizer.transportRouteVisualizer lineShiftMode "\"normal\""
par Network.visualizer.transportRouteVisualizer lineContactSpacing 3
par Network.visualizer.transportRouteVisualizer lineContactMode "\"rectangular\""
attr enum circular,rectangular
par Network.visualizer.transportRouteVisualizer labelFormat "\"%n\""
par Network.visualizer.transportRouteVisualizer labelFont "\"<default>, 8px\""
par Network.visualizer.transportRouteVisualizer labelColor "\"\""
par Network.visualizer.transportRouteVisualizer fadeOutMode "\"realTime\""
attr enum realTime,animationTime,simulationTime
par Network.visualizer.transportRouteVisualizer fadeOutTime 1s
attr unit s
par Network.visualizer.transportRouteVisualizer fadeOutAnimationSpeed 0
par Network.visualizer.transportRouteVisualizer zIndex 4
par Network.visualizer.transportConnectionVisualizer typename "\"inet.visualizer.canvas.transportlayer.TransportConnectionCanvasVisualizer\""
par Network.visualizer.transportConnectionVisualizer visualizationTargetModule "\"^.^\""
par Network.visualizer.transportConnectionVisualizer visualizationSubjectModule "\"^.^\""
par Network.visualizer.transportConnectionVisualizer tags "\"\""
par Network.visualizer.transportConnectionVisualizer networkNodeVisualizerModule "\"^.networkNodeVisualizer\""
par Network.visualizer.transportConnectionVisualizer displayTransportConnections false
par Network.visualizer.transportConnectionVisualizer sourceNodeFilter "\"*\""
attr mutable ""
par Network.visualizer.transportConnectionVisualizer sourcePortFilter "\"*\""
attr mutable ""
par Network.visualizer.transportConnectionVisualizer destinationNodeFilter "\"*\""
attr mutable ""
par Network.visualizer.transportConnectionVisualizer destinationPortFilter "\"*\""
attr mutable ""
par Network.visualizer.transportConnectionVisualizer icon "\"misc/marker_s\""
par Network.visualizer.transportConnectionVisualizer iconColor "\"dark\""
attr enum light,dark
par Network.visualizer.transportConnectionVisualizer labelFont "\"<default>\""
par Network.visualizer.transportConnectionVisualizer labelColor "\"black\""
par Network.visualizer.transportConnectionVisualizer placementHint "\"top\""
par Network.visualizer.transportConnectionVisualizer placementPriority 0
par Network.visualizer.transportConnectionVisualizer zIndex 4
par Network.visualizer.failureProtectionConfigurationVisualizer typename "\"inet.visualizer.canvas.configurator.FailureProtectionConfigurationCanvasVisualizer\""
par Network.visualizer.failureProtectionConfigurationVisualizer visualizationTargetModule "\"^.^\""
par Network.visualizer.failureProtectionConfigurationVisualizer visualizationSubjectModule "\"^.^\""
par Network.visualizer.failureProtectionConfigurationVisualizer tags "\"\""
par Network.visualizer.failureProtectionConfigurationVisualizer displayTrees false
par Network.visualizer.failureProtectionConfigurationVisualizer lineColor "\"dark\""
attr enum light,dark
par Network.visualizer.failureProtectionConfigurationVisualizer lineStyle "\"solid\""
par Network.visualizer.failureProtectionConfigurationVisualizer lineWidth 3
par Network.visualizer.failureProtectionConfigurationVisualizer lineSmooth false
par Network.visualizer.failureProtectionConfigurationVisualizer lineShift 16
par Network.visualizer.failureProtectionConfigurationVisualizer lineShiftMode "\"normal\""
par Network.visualizer.failureProtectionConfigurationVisualizer lineContactSpacing 3
par Network.visualizer.failureProtectionConfigurationVisualizer lineContactMode "\"rectangular\""
attr enum circular,rectangular
par Network.visualizer.failureProtectionConfigurationVisualizer failureProtectionConfiguratorModule "\"failureProtectionConfigurator\""
par Network.visualizer.failureProtectionConfigurationVisualizer streamFilter "\"*\""
par Network.visualizer.failureProtectionConfigurationVisualizer zIndex 3
par Network.visualizer.streamRedundancyConfigurationVisualizer typename "\"inet.visualizer.canvas.configurator.StreamRedundancyConfigurationCanvasVisualizer\""
par Network.visualizer.streamRedundancyConfigurationVisualizer visualizationTargetModule "\"^.^\""
par Network.visualizer.streamRedundancyConfigurationVisualizer visualizationSubjectModule "\"^.^\""
par Network.visualizer.streamRedundancyConfigurationVisualizer tags "\"\""
par Network.visualizer.streamRedundancyConfigurationVisualizer displayTrees false
par Network.visualizer.streamRedundancyConfigurationVisualizer lineColor "\"dark\""
attr enum light,dark
par Network.visualizer.streamRedundancyConfigurationVisualizer lineStyle "\"solid\""
par Network.visualizer.streamRedundancyConfigurationVisualizer lineWidth 3
par Network.visualizer.streamRedundancyConfigurationVisualizer lineSmooth false
par Network.visualizer.streamRedundancyConfigurationVisualizer lineShift 16
par Network.visualizer.streamRedundancyConfigurationVisualizer lineShiftMode "\"normal\""
par Network.visualizer.streamRedundancyConfigurationVisualizer lineContactSpacing 3
par Network.visualizer.streamRedundancyConfigurationVisualizer lineContactMode "\"rectangular\""
attr enum circular,rectangular
par Network.visualizer.streamRedundancyConfigurationVisualizer streamRedundancyConfiguratorModule "\"streamRedundancyConfigurator\""
par Network.visualizer.streamRedundancyConfigurationVisualizer streamFilter "\"*\""
par Network.visualizer.streamRedundancyConfigurationVisualizer zIndex 3
par Network.visualizer typename "\"inet.visualizer.canvas.integrated.IntegratedCanvasVisualizer\""
par Network.configurator typename "\"inet.networklayer.configurator.ipv4.Ipv4NetworkConfigurator\""
par Network.configurator minLinkWeight 0.001
par Network.configurator configureIsolatedNetworksSeparatly false
par Network.configurator config "<config>...</config> at content:1"
par Network.configurator assignAddresses true
par Network.configurator assignUniqueAddresses true
par Network.configurator assignDisjunctSubnetAddresses true
par Network.configurator addStaticRoutes true
par Network.configurator addDefaultRoutes true
par Network.configurator addSubnetRoutes true
par Network.configurator addDirectRoutes true
par Network.configurator optimizeRoutes true
par Network.configurator dumpTopology false
par Network.configurator dumpLinks false
par Network.configurator dumpAddresses false
par Network.configurator dumpRoutes false
par Network.configurator dumpConfig "\"\""
par Network.macForwardingTableConfigurator typename "\"inet.linklayer.configurator.MacForwardingTableConfigurator\""
par Network.source_1.ethg$i[0].channel typename "\"ned.IdealChannel\""
par Network.source_1.eth[0].phys$o.channel typename "\"ned.IdealChannel\""
par Network.source_1.interfaceTable typename "\"inet.networklayer.common.InterfaceTable\""
par Network.source_1.interfaceTable displayAddresses false
par Network.source_1.cb typename "\"inet.common.MessageDispatcher\""
par Network.source_1.cb displayStringTextFormat "\"processed %p pk (%l)\""
par Network.source_1.cb forwardServiceRegistration true
par Network.source_1.cb forwardProtocolRegistration true
par Network.source_1.bl typename "\"inet.common.MessageDispatcher\""
par Network.source_1.bl displayStringTextFormat "\"processed %p pk (%l)\""
par Network.source_1.bl forwardServiceRegistration true
par Network.source_1.bl forwardProtocolRegistration true
par Network.source_1.ethernet.fcsInserter.out.channel typename "\"ned.IdealChannel\""
par Network.source_1.ethernet.lowerLayerIn.channel typename "\"ned.IdealChannel\""
par Network.source_1.ethernet.upperLayerIn.channel typename "\"ned.IdealChannel\""
par Network.source_1.ethernet.macHeaderChecker.out.channel typename "\"ned.IdealChannel\""
par Network.source_1.ethernet.macHeaderInserter typename "\"inet.linklayer.ethernet.modular.EthernetMacHeaderInserter\""
par Network.source_1.ethernet.macHeaderInserter displayStringTextFormat "\"processed %p pk (%l)\""
par Network.source_1.ethernet.macHeaderInserter interfaceTableModule "\"Network.source_1.interfaceTable\""
scalar Network.source_1.ethernet.macHeaderInserter outgoingPackets:count 0
attr recordingmode count
attr source "merge(packetPushedOut, packetPulledOut)"
attr title "outgoing packets, count"
attr unit pk
scalar Network.source_1.ethernet.macHeaderInserter outgoingPacketLengths:sum 0
attr interpolationmode none
attr recordingmode sum
attr source "packetLength(merge(packetPushedOut, packetPulledOut))"
attr title "outgoing packet lengths, sum"
attr unit b
statistic Network.source_1.ethernet.macHeaderInserter outgoingPacketLengths:histogram
field count 0
field mean -nan
field stddev -nan
field min -nan
field max -nan
field sum 0
field sqrsum 0
attr interpolationmode none
attr recordingmode histogram
attr source "packetLength(merge(packetPushedOut, packetPulledOut))"
attr title "outgoing packet lengths"
attr unit b
bin	-inf	0
bin	0	0
bin	1	0
scalar Network.source_1.ethernet.macHeaderInserter flowOutgoingPacketLengths:sum 0
attr interpolationmode none
attr recordingmode sum
attr source "packetLength(demuxFlow(merge(packetPushedOut, packetPulledOut)))"
attr title "flow specific outgoing packet lengths, sum"
attr unit b
statistic Network.source_1.ethernet.macHeaderInserter flowOutgoingPacketLengths:histogram
field count 0
field mean -nan
field stddev -nan
field min -nan
field max -nan
field sum 0
field sqrsum 0
attr interpolationmode none
attr recordingmode histogram
attr source "packetLength(demuxFlow(merge(packetPushedOut, packetPulledOut)))"
attr title "flow specific outgoing packet lengths"
attr unit b
bin	-inf	0
bin	0	0
bin	1	0
scalar Network.source_1.ethernet.macHeaderInserter incomingPackets:count 0
attr recordingmode count
attr source "merge(packetPushedIn, packetPulledIn)"
attr title "incoming packets, count"
attr unit pk
scalar Network.source_1.ethernet.macHeaderInserter incomingPacketLengths:sum 0
attr interpolationmode none
attr recordingmode sum
attr source "packetLength(merge(packetPushedIn, packetPulledIn))"
attr title "incoming packet lengths, sum"
attr unit b
statistic Network.source_1.ethernet.macHeaderInserter incomingPacketLengths:histogram
field count 0
field mean -nan
field stddev -nan
field min -nan
field max -nan
field sum 0
field sqrsum 0
attr interpolationmode none
attr recordingmode histogram
attr source "packetLength(merge(packetPushedIn, packetPulledIn))"
attr title "incoming packet lengths"
attr unit b
bin	-inf	0
bin	0	0
bin	1	0
scalar Network.source_1.ethernet.macHeaderInserter flowIncomingPacketLengths:sum 0
attr interpolationmode none
attr recordingmode sum
attr source "packetLength(demuxFlow(merge(packetPushedIn, packetPulledIn)))"
attr title "flow specific incoming packet lengths, sum"
attr unit b
statistic Network.source_1.ethernet.macHeaderInserter flowIncomingPacketLengths:histogram
field count 0
field mean -nan
field stddev -nan
field min -nan
field max -nan
field sum 0
field sqrsum 0
attr interpolationmode none
attr recordingmode histogram
attr source "packetLength(demuxFlow(merge(packetPushedIn, packetPulledIn)))"
attr title "flow specific incoming packet lengths"
attr unit b
bin	-inf	0
bin	0	0
bin	1	0
par Network.source_1.ethernet.paddingInserter typename "\"inet.protocolelement.common.PaddingInserter\""
par Network.source_1.ethernet.paddingInserter displayStringTextFormat "\"processed %p pk (%l)\""
par Network.source_1.ethernet.paddingInserter minLength 480b
attr unit b
par Network.source_1.ethernet.paddingInserter roundingLength 8b
attr unit b
par Network.source_1.ethernet.paddingInserter insertionPosition "\"back\""
attr enum front,back
scalar Network.source_1.ethernet.paddingInserter outgoingPackets:count 0
attr recordingmode count
attr source "merge(packetPushedOut, packetPulledOut)"
attr title "outgoing packets, count"
attr unit pk
scalar Network.source_1.ethernet.paddingInserter outgoingPacketLengths:sum 0
attr interpolationmode none
attr recordingmode sum
attr source "packetLength(merge(packetPushedOut, packetPulledOut))"
attr title "outgoing packet lengths, sum"
attr unit b
statistic Network.source_1.ethernet.paddingInserter outgoingPacketLengths:histogram
field count 0
field mean -nan
field stddev -nan
field min -nan
field max -nan
field sum 0
field sqrsum 0
attr interpolationmode none
attr recordingmode histogram
attr source "packetLength(merge(packetPushedOut, packetPulledOut))"
attr title "outgoing packet lengths"
attr unit b
bin	-inf	0
bin	0	0
bin	1	0
scalar Network.source_1.ethernet.paddingInserter flowOutgoingPacketLengths:sum 0
attr interpolationmode none
attr recordingmode sum
attr source "packetLength(demuxFlow(merge(packetPushedOut, packetPulledOut)))"
attr title "flow specific outgoing packet lengths, sum"
attr unit b
statistic Network.source_1.ethernet.paddingInserter flowOutgoingPacketLengths:histogram
field count 0
field mean -nan
field stddev -nan
field min -nan
field max -nan
field sum 0
field sqrsum 0
attr interpolationmode none
attr recordingmode histogram
attr source "packetLength(demuxFlow(merge(packetPushedOut, packetPulledOut)))"
attr title "flow specific outgoing packet lengths"
attr unit b
bin	-inf	0
bin	0	0
bin	1	0
scalar Network.source_1.ethernet.paddingInserter incomingPackets:count 0
attr recordingmode count
attr source "merge(packetPushedIn, packetPulledIn)"
attr title "incoming packets, count"
attr unit pk
scalar Network.source_1.ethernet.paddingInserter incomingPacketLengths:sum 0
attr interpolationmode none
attr recordingmode sum
attr source "packetLength(merge(packetPushedIn, packetPulledIn))"
attr title "incoming packet lengths, sum"
attr unit b
statistic Network.source_1.ethernet.paddingInserter incomingPacketLengths:histogram
field count 0
field mean -nan
field stddev -nan
field min -nan
field max -nan
field sum 0
field sqrsum 0
attr interpolationmode none
attr recordingmode histogram
attr source "packetLength(merge(packetPushedIn, packetPulledIn))"
attr title "incoming packet lengths"
attr unit b
bin	-inf	0
bin	0	0
bin	1	0
scalar Network.source_1.ethernet.paddingInserter flowIncomingPacketLengths:sum 0
attr interpolationmode none
attr recordingmode sum
attr source "packetLength(demuxFlow(merge(packetPushedIn, packetPulledIn)))"
attr title "flow specific incoming packet lengths, sum"
attr unit b
statistic Network.source_1.ethernet.paddingInserter flowIncomingPacketLengths:histogram
field count 0
field mean -nan
field stddev -nan
field min -nan
field max -nan
field sum 0
field sqrsum 0
attr interpolationmode none
attr recordingmode histogram
attr source "packetLength(demuxFlow(merge(packetPushedIn, packetPulledIn)))"
attr title "flow specific incoming packet lengths"
attr unit b
bin	-inf	0
bin	0	0
bin	1	0
par Network.source_1.ethernet.fcsInserter typename "\"inet.linklayer.ethernet.modular.EthernetFcsInserter\""
par Network.source_1.ethernet.fcsInserter displayStringTextFormat "\"processed %p pk (%l)\""
par Network.source_1.ethernet.fcsInserter fcsMode "\"declared\""
attr enum disabled,declared,computed
scalar Network.source_1.ethernet.fcsInserter outgoingPackets:count 0
attr recordingmode count
attr source "merge(packetPushedOut, packetPulledOut)"
attr title "outgoing packets, count"
attr unit pk
scalar Network.source_1.ethernet.fcsInserter outgoingPacketLengths:sum 0
attr interpolationmode none
attr recordingmode sum
attr source "packetLength(merge(packetPushedOut, packetPulledOut))"
attr title "outgoing packet lengths, sum"
attr unit b
statistic Network.source_1.ethernet.fcsInserter outgoingPacketLengths:histogram
field count 0
field mean -nan
field stddev -nan
field min -nan
field max -nan
field sum 0
field sqrsum 0
attr interpolationmode none
attr recordingmode histogram
attr source "packetLength(merge(packetPushedOut, packetPulledOut))"
attr title "outgoing packet lengths"
attr unit b
bin	-inf	0
bin	0	0
bin	1	0
scalar Network.source_1.ethernet.fcsInserter flowOutgoingPacketLengths:sum 0
attr interpolationmode none
attr recordingmode sum
attr source "packetLength(demuxFlow(merge(packetPushedOut, packetPulledOut)))"
attr title "flow specific outgoing packet lengths, sum"
attr unit b
statistic Network.source_1.ethernet.fcsInserter flowOutgoingPacketLengths:histogram
field count 0
field mean -nan
field stddev -nan
field min -nan
field max -nan
field sum 0
field sqrsum 0
attr interpolationmode none
attr recordingmode histogram
attr source "packetLength(demuxFlow(merge(packetPushedOut, packetPulledOut)))"
attr title "flow specific outgoing packet lengths"
attr unit b
bin	-inf	0
bin	0	0
bin	1	0
scalar Network.source_1.ethernet.fcsInserter incomingPackets:count 0
attr recordingmode count
attr source "merge(packetPushedIn, packetPulledIn)"
attr title "incoming packets, count"
attr unit pk
scalar Network.source_1.ethernet.fcsInserter incomingPacketLengths:sum 0
attr interpolationmode none
attr recordingmode sum
attr source "packetLength(merge(packetPushedIn, packetPulledIn))"
attr title "incoming packet lengths, sum"
attr unit b
statistic Network.source_1.ethernet.fcsInserter incomingPacketLengths:histogram
field count 0
field mean -nan
field stddev -nan
field min -nan
field max -nan
field sum 0
field sqrsum 0
attr interpolationmode none
attr recordingmode histogram
attr source "packetLength(merge(packetPushedIn, packetPulledIn))"
attr title "incoming packet lengths"
attr unit b
bin	-inf	0
bin	0	0
bin	1	0
scalar Network.source_1.ethernet.fcsInserter flowIncomingPacketLengths:sum 0
attr interpolationmode none
attr recordingmode sum
attr source "packetLength(demuxFlow(merge(packetPushedIn, packetPulledIn)))"
attr title "flow specific incoming packet lengths, sum"
attr unit b
statistic Network.source_1.ethernet.fcsInserter flowIncomingPacketLengths:histogram
field count 0
field mean -nan
field stddev -nan
field min -nan
field max -nan
field sum 0
field sqrsum 0
attr interpolationmode none
attr recordingmode histogram
attr source "packetLength(demuxFlow(merge(packetPushedIn, packetPulledIn)))"
attr title "flow specific incoming packet lengths"
attr unit b
bin	-inf	0
bin	0	0
bin	1	0
par Network.source_1.ethernet.macHeaderChecker typename "\"inet.linklayer.ethernet.modular.EthernetMacHeaderChecker\""
par Network.source_1.ethernet.macHeaderChecker displayStringTextFormat "\"dropped %d/%p pk (%k/%l)\""
par Network.source_1.ethernet.macHeaderChecker backpressure false
par Network.source_1.ethernet.macHeaderChecker interfaceTableModule "\"Network.source_1.interfaceTable\""
par Network.source_1.ethernet.macHeaderChecker promiscuous false
scalar Network.source_1.ethernet.macHeaderChecker outgoingPackets:count 0
attr recordingmode count
attr source "merge(packetPushedOut, packetPulledOut)"
attr title "outgoing packets, count"
attr unit pk
scalar Network.source_1.ethernet.macHeaderChecker outgoingPacketLengths:sum 0
attr interpolationmode none
attr recordingmode sum
attr source "packetLength(merge(packetPushedOut, packetPulledOut))"
attr title "outgoing packet lengths, sum"
attr unit b
statistic Network.source_1.ethernet.macHeaderChecker outgoingPacketLengths:histogram
field count 0
field mean -nan
field stddev -nan
field min -nan
field max -nan
field sum 0
field sqrsum 0
attr interpolationmode none
attr recordingmode histogram
attr source "packetLength(merge(packetPushedOut, packetPulledOut))"
attr title "outgoing packet lengths"
attr unit b
bin	-inf	0
bin	0	0
bin	1	0
scalar Network.source_1.ethernet.macHeaderChecker flowOutgoingPacketLengths:sum 0
attr interpolationmode none
attr recordingmode sum
attr source "packetLength(demuxFlow(merge(packetPushedOut, packetPulledOut)))"
attr title "flow specific outgoing packet lengths, sum"
attr unit b
statistic Network.source_1.ethernet.macHeaderChecker flowOutgoingPacketLengths:histogram
field count 0
field mean -nan
field stddev -nan
field min -nan
field max -nan
field sum 0
field sqrsum 0
attr interpolationmode none
attr recordingmode histogram
attr source "packetLength(demuxFlow(merge(packetPushedOut, packetPulledOut)))"
attr title "flow specific outgoing packet lengths"
attr unit b
bin	-inf	0
bin	0	0
bin	1	0
scalar Network.source_1.ethernet.macHeaderChecker incomingPackets:count 0
attr recordingmode count
attr source "merge(packetPushedIn, packetPulledIn)"
attr title "incoming packets, count"
attr unit pk
scalar Network.source_1.ethernet.macHeaderChecker incomingPacketLengths:sum 0
attr interpolationmode none
attr recordingmode sum
attr source "packetLength(merge(packetPushedIn, packetPulledIn))"
attr title "incoming packet lengths, sum"
attr unit b
statistic Network.source_1.ethernet.macHeaderChecker incomingPacketLengths:histogram
field count 0
field mean -nan
field stddev -nan
field min -nan
field max -nan
field sum 0
field sqrsum 0
attr interpolationmode none
attr recordingmode histogram
attr source "packetLength(merge(packetPushedIn, packetPulledIn))"
attr title "incoming packet lengths"
attr unit b
bin	-inf	0
bin	0	0
bin	1	0
scalar Network.source_1.ethernet.macHeaderChecker flowIncomingPacketLengths:sum 0
attr interpolationmode none
attr recordingmode sum
attr source "packetLength(demuxFlow(merge(packetPushedIn, packetPulledIn)))"
attr title "flow specific incoming packet lengths, sum"
attr unit b
statistic Network.source_1.ethernet.macHeaderChecker flowIncomingPacketLengths:histogram
field count 0
field mean -nan
field stddev -nan
field min -nan
field max -nan
field sum 0
field sqrsum 0
attr interpolationmode none
attr recordingmode histogram
attr source "packetLength(demuxFlow(merge(packetPushedIn, packetPulledIn)))"
attr title "flow specific incoming packet lengths"
attr unit b
bin	-inf	0
bin	0	0
bin	1	0
scalar Network.source_1.ethernet.macHeaderChecker droppedPackets:count 0
attr recordingmode count
attr source packetDropped
attr title "dropped packets, count"
attr unit pk
scalar Network.source_1.ethernet.macHeaderChecker droppedPacketLengths:sum 0
attr interpolationmode none
attr recordingmode sum
attr source packetLength(packetDropped)
attr title "dropped packet lengths, sum"
attr unit b
statistic Network.source_1.ethernet.macHeaderChecker droppedPacketLengths:histogram
field count 0
field mean -nan
field stddev -nan
field min -nan
field max -nan
field sum 0
field sqrsum 0
attr interpolationmode none
attr recordingmode histogram
attr source packetLength(packetDropped)
attr title "dropped packet lengths"
attr unit b
bin	-inf	0
bin	0	0
bin	1	0
scalar Network.source_1.ethernet.macHeaderChecker flowDroppedPacketLengths:sum 0
attr interpolationmode none
attr recordingmode sum
attr source packetLength(demuxFlow(packetDropped))
attr title "flow specific dropped packet lengths, sum"
attr unit b
statistic Network.source_1.ethernet.macHeaderChecker flowDroppedPacketLengths:histogram
field count 0
field mean -nan
field stddev -nan
field min -nan
field max -nan
field sum 0
field sqrsum 0
attr interpolationmode none
attr recordingmode histogram
attr source packetLength(demuxFlow(packetDropped))
attr title "flow specific dropped packet lengths"
attr unit b
bin	-inf	0
bin	0	0
bin	1	0
par Network.source_1.ethernet.fcsChecker typename "\"inet.linklayer.ethernet.modular.EthernetFcsChecker\""
par Network.source_1.ethernet.fcsChecker displayStringTextFormat "\"dropped %d/%p pk (%k/%l)\""
par Network.source_1.ethernet.fcsChecker backpressure false
par Network.source_1.ethernet.fcsChecker popFcs true
scalar Network.source_1.ethernet.fcsChecker outgoingPackets:count 0
attr recordingmode count
attr source "merge(packetPushedOut, packetPulledOut)"
attr title "outgoing packets, count"
attr unit pk
scalar Network.source_1.ethernet.fcsChecker outgoingPacketLengths:sum 0
attr interpolationmode none
attr recordingmode sum
attr source "packetLength(merge(packetPushedOut, packetPulledOut))"
attr title "outgoing packet lengths, sum"
attr unit b
statistic Network.source_1.ethernet.fcsChecker outgoingPacketLengths:histogram
field count 0
field mean -nan
field stddev -nan
field min -nan
field max -nan
field sum 0
field sqrsum 0
attr interpolationmode none
attr recordingmode histogram
attr source "packetLength(merge(packetPushedOut, packetPulledOut))"
attr title "outgoing packet lengths"
attr unit b
bin	-inf	0
bin	0	0
bin	1	0
scalar Network.source_1.ethernet.fcsChecker flowOutgoingPacketLengths:sum 0
attr interpolationmode none
attr recordingmode sum
attr source "packetLength(demuxFlow(merge(packetPushedOut, packetPulledOut)))"
attr title "flow specific outgoing packet lengths, sum"
attr unit b
statistic Network.source_1.ethernet.fcsChecker flowOutgoingPacketLengths:histogram
field count 0
field mean -nan
field stddev -nan
field min -nan
field max -nan
field sum 0
field sqrsum 0
attr interpolationmode none
attr recordingmode histogram
attr source "packetLength(demuxFlow(merge(packetPushedOut, packetPulledOut)))"
attr title "flow specific outgoing packet lengths"
attr unit b
bin	-inf	0
bin	0	0
bin	1	0
scalar Network.source_1.ethernet.fcsChecker incomingPackets:count 0
attr recordingmode count
attr source "merge(packetPushedIn, packetPulledIn)"
attr title "incoming packets, count"
attr unit pk
scalar Network.source_1.ethernet.fcsChecker incomingPacketLengths:sum 0
attr interpolationmode none
attr recordingmode sum
attr source "packetLength(merge(packetPushedIn, packetPulledIn))"
attr title "incoming packet lengths, sum"
attr unit b
statistic Network.source_1.ethernet.fcsChecker incomingPacketLengths:histogram
field count 0
field mean -nan
field stddev -nan
field min -nan
field max -nan
field sum 0
field sqrsum 0
attr interpolationmode none
attr recordingmode histogram
attr source "packetLength(merge(packetPushedIn, packetPulledIn))"
attr title "incoming packet lengths"
attr unit b
bin	-inf	0
bin	0	0
bin	1	0
scalar Network.source_1.ethernet.fcsChecker flowIncomingPacketLengths:sum 0
attr interpolationmode none
attr recordingmode sum
attr source "packetLength(demuxFlow(merge(packetPushedIn, packetPulledIn)))"
attr title "flow specific incoming packet lengths, sum"
attr unit b
statistic Network.source_1.ethernet.fcsChecker flowIncomingPacketLengths:histogram
field count 0
field mean -nan
field stddev -nan
field min -nan
field max -nan
field sum 0
field sqrsum 0
attr interpolationmode none
attr recordingmode histogram
attr source "packetLength(demuxFlow(merge(packetPushedIn, packetPulledIn)))"
attr title "flow specific incoming packet lengths"
attr unit b
bin	-inf	0
bin	0	0
bin	1	0
scalar Network.source_1.ethernet.fcsChecker droppedPackets:count 0
attr recordingmode count
attr source packetDropped
attr title "dropped packets, count"
attr unit pk
scalar Network.source_1.ethernet.fcsChecker droppedPacketLengths:sum 0
attr interpolationmode none
attr recordingmode sum
attr source packetLength(packetDropped)
attr title "dropped packet lengths, sum"
attr unit b
statistic Network.source_1.ethernet.fcsChecker droppedPacketLengths:histogram
field count 0
field mean -nan
field stddev -nan
field min -nan
field max -nan
field sum 0
field sqrsum 0
attr interpolationmode none
attr recordingmode histogram
attr source packetLength(packetDropped)
attr title "dropped packet lengths"
attr unit b
bin	-inf	0
bin	0	0
bin	1	0
scalar Network.source_1.ethernet.fcsChecker flowDroppedPacketLengths:sum 0
attr interpolationmode none
attr recordingmode sum
attr source packetLength(demuxFlow(packetDropped))
attr title "flow specific dropped packet lengths, sum"
attr unit b
statistic Network.source_1.ethernet.fcsChecker flowDroppedPacketLengths:histogram
field count 0
field mean -nan
field stddev -nan
field min -nan
field max -nan
field sum 0
field sqrsum 0
attr interpolationmode none
attr recordingmode histogram
attr source packetLength(demuxFlow(packetDropped))
attr title "flow specific dropped packet lengths"
attr unit b
bin	-inf	0
bin	0	0
bin	1	0
par Network.source_1.ethernet typename "\"inet.linklayer.ethernet.modular.EthernetLayer\""
par Network.source_1.ethernet interfaceTableModule "\"Network.source_1.interfaceTable\""
par Network.source_1.ethernet hasSocketSupport false
par Network.source_1.li typename "\"inet.common.MessageDispatcher\""
par Network.source_1.li displayStringTextFormat "\"processed %p pk (%l)\""
par Network.source_1.li forwardServiceRegistration true
par Network.source_1.li forwardProtocolRegistration true
par Network.source_1.lo[0].upperLayerIn.channel typename "\"ned.IdealChannel\""
par Network.source_1.lo[0].lo.upperLayerOut.channel typename "\"ned.IdealChannel\""
par Network.source_1.lo[0].lo typename "\"inet.linklayer.loopback.Loopback\""
par Network.source_1.lo[0].lo interfaceTableModule "\"Network.source_1.interfaceTable\""
par Network.source_1.lo[0].lo mtu 4470B
attr unit B
scalar Network.source_1.lo[0].lo rcvdPkFromHl:count 0
attr interpolationmode none
attr recordingmode count
attr source packetReceivedFromUpper
attr title "packets received from higher layer, count"
scalar Network.source_1.lo[0].lo rcvdPkFromHl:sum(packetBytes) 0
attr interpolationmode none
attr recordingmode sum(packetBytes)
attr source packetReceivedFromUpper
attr title "packets received from higher layer, sum(packetBytes)"
scalar Network.source_1.lo[0].lo passedUpPk:count 0
attr interpolationmode none
attr recordingmode count
attr source packetSentToUpper
attr title "packets passed to higher layer, count"
scalar Network.source_1.lo[0].lo passedUpPk:sum(packetBytes) 0
attr interpolationmode none
attr recordingmode sum(packetBytes)
attr source packetSentToUpper
attr title "packets passed to higher layer, sum(packetBytes)"
par Network.source_1.lo[0] typename "\"inet.linklayer.loopback.LoopbackInterface\""
par Network.source_1.lo[0] displayStringTextFormat "\"%a (%i)\\n%m\""
par Network.source_1.lo[0] recordPcap false
par Network.source_1.lo[0] numPcapRecorders 0
par Network.source_1.lo[0] interfaceTableModule "\"Network.source_1.interfaceTable\""
scalar Network.source_1.lo[0] packetDropInterfaceDown:count 0
attr interpolationmode none
attr recordingmode count
attr source packetDropReasonIsInterfaceDown(packetDropped)
attr title "packet drops: interface down, count"
scalar Network.source_1.lo[0] packetDropInterfaceDown:sum(packetBytes) 0
attr interpolationmode none
attr recordingmode sum(packetBytes)
attr source packetDropReasonIsInterfaceDown(packetDropped)
attr title "packet drops: interface down, sum(packetBytes)"
scalar Network.source_1.lo[0] packetDropNoCarrier:count 0
attr interpolationmode none
attr recordingmode count
attr source packetDropReasonIsNoCarrier(packetDropped)
attr title "packet drops: no carrier, count"
scalar Network.source_1.lo[0] packetDropNoCarrier:sum(packetBytes) 0
attr interpolationmode none
attr recordingmode sum(packetBytes)
attr source packetDropReasonIsNoCarrier(packetDropped)
attr title "packet drops: no carrier, sum(packetBytes)"
par Network.source_1.eth[0].phyLayer.lowerLayerOut.channel typename "\"ned.IdealChannel\""
par Network.source_1.eth[0].phys$i.channel typename "\"ned.IdealChannel\""
par Network.source_1.eth[0].upperLayerIn.channel typename "\"ned.IdealChannel\""
par Network.source_1.eth[0].macLayer.upperLayerOut.channel typename "\"ned.IdealChannel\""
par Network.source_1.eth[0].macLayer.upperLayerIn.channel typename "\"ned.IdealChannel\""
par Network.source_1.eth[0].macLayer.outboundEmitter.out.channel typename "\"ned.IdealChannel\""
par Network.source_1.eth[0].macLayer.lowerLayerIn.channel typename "\"ned.IdealChannel\""
par Network.source_1.eth[0].macLayer.fcsChecker.out.channel typename "\"ned.IdealChannel\""
par Network.source_1.eth[0].macLayer.queue typename "\"inet.queueing.queue.PacketQueue\""
par Network.source_1.eth[0].macLayer.queue displayStringTextFormat "\"contains %p pk (%l) pushed %u\\npulled %o removed %r dropped %d\""
par Network.source_1.eth[0].macLayer.queue packetCapacity -1
par Network.source_1.eth[0].macLayer.queue dataCapacity -1b
attr unit b
par Network.source_1.eth[0].macLayer.queue dropperClass "\"\""
par Network.source_1.eth[0].macLayer.queue comparatorClass "\"\""
par Network.source_1.eth[0].macLayer.queue bufferModule "\"\""
scalar Network.source_1.eth[0].macLayer.queue queueLength:last 0
attr autoWarmupFilter false
attr interpolationmode sample-hold
attr recordingmode last
attr source "warmup(atomic(constant0(packetPushEnded) + count(packetPushStarted) - count(packetPulled) - count(packetRemoved) - count(packetDropped)))"
attr title "queue length, last"
attr unit pk
scalar Network.source_1.eth[0].macLayer.queue queueLength:max 0
attr autoWarmupFilter false
attr interpolationmode sample-hold
attr recordingmode max
attr source "warmup(atomic(constant0(packetPushEnded) + count(packetPushStarted) - count(packetPulled) - count(packetRemoved) - count(packetDropped)))"
attr title "queue length, max"
attr unit pk
scalar Network.source_1.eth[0].macLayer.queue queueLength:timeavg 0
attr autoWarmupFilter false
attr interpolationmode sample-hold
attr recordingmode timeavg
attr source "warmup(atomic(constant0(packetPushEnded) + count(packetPushStarted) - count(packetPulled) - count(packetRemoved) - count(packetDropped)))"
attr title "queue length, timeavg"
attr unit pk
scalar Network.source_1.eth[0].macLayer.queue queueBitLength:last 0
attr autoWarmupFilter false
attr interpolationmode sample-hold
attr recordingmode last
attr source "warmup(atomic(constant0(packetPushEnded) + sum(packetLength(packetPushStarted)) - sum(packetLength(packetPulled)) - sum(packetLength(packetRemoved)) - sum(packetLength(packetDropped))))"
attr title "queue bit length, last"
attr unit b
scalar Network.source_1.eth[0].macLayer.queue queueBitLength:max 0
attr autoWarmupFilter false
attr interpolationmode sample-hold
attr recordingmode max
attr source "warmup(atomic(constant0(packetPushEnded) + sum(packetLength(packetPushStarted)) - sum(packetLength(packetPulled)) - sum(packetLength(packetRemoved)) - sum(packetLength(packetDropped))))"
attr title "queue bit length, max"
attr unit b
scalar Network.source_1.eth[0].macLayer.queue queueBitLength:timeavg 0
attr autoWarmupFilter false
attr interpolationmode sample-hold
attr recordingmode timeavg
attr source "warmup(atomic(constant0(packetPushEnded) + sum(packetLength(packetPushStarted)) - sum(packetLength(packetPulled)) - sum(packetLength(packetRemoved)) - sum(packetLength(packetDropped))))"
attr title "queue bit length, timeavg"
attr unit b
statistic Network.source_1.eth[0].macLayer.queue queueingTime:histogram
field count 0
field mean -nan
field stddev -nan
field min -nan
field max -nan
field sum 0
field sqrsum 0
attr interpolationmode none
attr recordingmode histogram
attr source queueingTime(packetPulled)
attr title "queueing times"
attr unit s
bin	-inf	0
bin	0	0
bin	1	0
scalar Network.source_1.eth[0].macLayer.queue outgoingPackets:count 0
attr recordingmode count
attr source packetPulled
attr title "outgoing packets, count"
attr unit pk
scalar Network.source_1.eth[0].macLayer.queue outgoingPacketLengths:sum 0
attr interpolationmode none
attr recordingmode sum
attr source packetLength(packetPulled)
attr title "outgoing packet lengths, sum"
attr unit b
statistic Network.source_1.eth[0].macLayer.queue outgoingPacketLengths:histogram
field count 0
field mean -nan
field stddev -nan
field min -nan
field max -nan
field sum 0
field sqrsum 0
attr interpolationmode none
attr recordingmode histogram
attr source packetLength(packetPulled)
attr title "outgoing packet lengths"
[...]
attr interpolationmode none
attr recordingmode sum
attr source "packetLength(demuxFlow(merge(packetPushedOut, packetPulledOut)))"
attr title "flow specific outgoing packet lengths, sum"
attr unit b
statistic Network.switch_2.eth[2].phyLayer.outboundEmitter flowOutgoingPacketLengths:histogram
field count 0
field mean -nan
field stddev -nan
field min -nan
field max -nan
field sum 0
field sqrsum 0
attr interpolationmode none
attr recordingmode histogram
attr source "packetLength(demuxFlow(merge(packetPushedOut, packetPulledOut)))"
attr title "flow specific outgoing packet lengths"
attr unit b
bin	-inf	0
bin	0	0
bin	1	0
scalar Network.switch_2.eth[2].phyLayer.outboundEmitter incomingPackets:count 0
attr recordingmode count
attr source "merge(packetPushedIn, packetPulledIn)"
attr title "incoming packets, count"
attr unit pk
scalar Network.switch_2.eth[2].phyLayer.outboundEmitter incomingPacketLengths:sum 0
attr interpolationmode none
attr recordingmode sum
attr source "packetLength(merge(packetPushedIn, packetPulledIn))"
attr title "incoming packet lengths, sum"
attr unit b
statistic Network.switch_2.eth[2].phyLayer.outboundEmitter incomingPacketLengths:histogram
field count 0
field mean -nan
field stddev -nan
field min -nan
field max -nan
field sum 0
field sqrsum 0
attr interpolationmode none
attr recordingmode histogram
attr source "packetLength(merge(packetPushedIn, packetPulledIn))"
attr title "incoming packet lengths"
attr unit b
bin	-inf	0
bin	0	0
bin	1	0
scalar Network.switch_2.eth[2].phyLayer.outboundEmitter flowIncomingPacketLengths:sum 0
attr interpolationmode none
attr recordingmode sum
attr source "packetLength(demuxFlow(merge(packetPushedIn, packetPulledIn)))"
attr title "flow specific incoming packet lengths, sum"
attr unit b
statistic Network.switch_2.eth[2].phyLayer.outboundEmitter flowIncomingPacketLengths:histogram
field count 0
field mean -nan
field stddev -nan
field min -nan
field max -nan
field sum 0
field sqrsum 0
attr interpolationmode none
attr recordingmode histogram
attr source "packetLength(demuxFlow(merge(packetPushedIn, packetPulledIn)))"
attr title "flow specific incoming packet lengths"
attr unit b
bin	-inf	0
bin	0	0
bin	1	0
par Network.switch_2.eth[2].phyLayer.transmitter typename "\"inet.protocolelement.transceiver.PacketTransmitter\""
par Network.switch_2.eth[2].phyLayer.transmitter displayStringTextFormat "\"processed %p pk (%l)\""
par Network.switch_2.eth[2].phyLayer.transmitter clockModule "\"\""
par Network.switch_2.eth[2].phyLayer.transmitter datarate this.bitrate
attr unit bps
scalar Network.switch_2.eth[2].phyLayer.transmitter propagationTime 0.01
statistic Network.switch_2.eth[2].phyLayer.transmitter utilization:histogram
field count 0
field mean -nan
field stddev -nan
field min -nan
field max -nan
field sum 0
field sqrsum 0
attr interpolationmode linear
attr recordingmode histogram
attr source "100 * utilization(count(transmissionStarted) - count(transmissionEnded))"
attr title utilization
attr unit %
bin	-inf	0
bin	0	0
bin	1	0
statistic Network.switch_2.eth[2].phyLayer.transmitter transmissionTime:histogram
field count 0
field mean -nan
field stddev -nan
field min -nan
field max -nan
field sum 0
field sqrsum 0
attr interpolationmode none
attr recordingmode histogram
attr source packetDuration(transmissionEnded)
attr title "transmission time"
attr unit s
bin	-inf	0
bin	0	0
bin	1	0
statistic Network.switch_2.eth[2].phyLayer.transmitter flowTransmissionTime:histogram
field count 0
field mean -nan
field stddev -nan
field min -nan
field max -nan
field sum 0
field sqrsum 0
attr interpolationmode none
attr recordingmode histogram
attr source packetDuration(demuxFlow(transmissionEnded))
attr title "flow transmission time"
attr unit s
bin	-inf	0
bin	0	0
bin	1	0
par Network.switch_2.eth[2].phyLayer.phyHeaderChecker typename "\"inet.physicallayer.wired.ethernet.EthernetPhyHeaderChecker\""
par Network.switch_2.eth[2].phyLayer.phyHeaderChecker displayStringTextFormat "\"dropped %d/%p pk (%k/%l)\""
par Network.switch_2.eth[2].phyLayer.phyHeaderChecker backpressure false
scalar Network.switch_2.eth[2].phyLayer.phyHeaderChecker outgoingPackets:count 1413
attr recordingmode count
attr source "merge(packetPushedOut, packetPulledOut)"
attr title "outgoing packets, count"
attr unit pk
scalar Network.switch_2.eth[2].phyLayer.phyHeaderChecker outgoingPacketLengths:sum 9609496
attr interpolationmode none
attr recordingmode sum
attr source "packetLength(merge(packetPushedOut, packetPulledOut))"
attr title "outgoing packet lengths, sum"
attr unit b
statistic Network.switch_2.eth[2].phyLayer.phyHeaderChecker outgoingPacketLengths:histogram
field count 1413
field mean 6800.7756546355
field stddev 1634.6086982009
field min 1728
field max 11944
field sum 9609496
field sqrsum 69124813632
attr interpolationmode none
attr recordingmode histogram
attr source "packetLength(merge(packetPushedOut, packetPulledOut))"
attr title "outgoing packet lengths"
attr unit b
bin	-inf	0
bin	200	0
bin	400	0
bin	600	0
bin	800	0
bin	1000	0
bin	1200	0
bin	1400	0
bin	1600	1
bin	1800	1
bin	2000	0
bin	2200	3
bin	2400	1
bin	2600	4
bin	2800	5
bin	3000	2
bin	3200	5
bin	3400	12
bin	3600	16
bin	3800	12
bin	4000	18
bin	4200	28
bin	4400	21
bin	4600	27
bin	4800	32
bin	5000	42
bin	5200	43
bin	5400	55
bin	5600	41
bin	5800	52
bin	6000	70
bin	6200	75
bin	6400	82
bin	6600	65
bin	6800	69
bin	7000	60
bin	7200	61
bin	7400	66
bin	7600	60
bin	7800	62
bin	8000	47
bin	8200	53
bin	8400	35
bin	8600	37
bin	8800	30
bin	9000	19
bin	9200	23
bin	9400	14
bin	9600	14
bin	9800	16
bin	10000	5
bin	10200	5
bin	10400	5
bin	10600	4
bin	10800	5
bin	11000	5
bin	11200	2
bin	11400	1
bin	11600	0
bin	11800	2
bin	12000	0
bin	12200	0
bin	12400	0
bin	12600	0
bin	12800	0
bin	13000	0
bin	13200	0
scalar Network.switch_2.eth[2].phyLayer.phyHeaderChecker flowOutgoingPacketLengths:sum 0
attr interpolationmode none
attr recordingmode sum
attr source "packetLength(demuxFlow(merge(packetPushedOut, packetPulledOut)))"
attr title "flow specific outgoing packet lengths, sum"
attr unit b
statistic Network.switch_2.eth[2].phyLayer.phyHeaderChecker flowOutgoingPacketLengths:histogram
field count 0
field mean -nan
field stddev -nan
field min -nan
field max -nan
field sum 0
field sqrsum 0
attr interpolationmode none
attr recordingmode histogram
attr source "packetLength(demuxFlow(merge(packetPushedOut, packetPulledOut)))"
attr title "flow specific outgoing packet lengths"
attr unit b
bin	-inf	0
bin	0	0
bin	1	0
scalar Network.switch_2.eth[2].phyLayer.phyHeaderChecker incomingPackets:count 1413
attr recordingmode count
attr source "merge(packetPushedIn, packetPulledIn)"
attr title "incoming packets, count"
attr unit pk
scalar Network.switch_2.eth[2].phyLayer.phyHeaderChecker incomingPacketLengths:sum 9699928
attr interpolationmode none
attr recordingmode sum
attr source "packetLength(merge(packetPushedIn, packetPulledIn))"
attr title "incoming packet lengths, sum"
attr unit b
statistic Network.switch_2.eth[2].phyLayer.phyHeaderChecker incomingPacketLengths:histogram
field count 1413
field mean 6864.7756546355
field stddev 1634.6086982009
field min 1792
field max 12008
field sum 9699928
field sqrsum 70360616768
attr interpolationmode none
attr recordingmode histogram
attr source "packetLength(merge(packetPushedIn, packetPulledIn))"
attr title "incoming packet lengths"
attr unit b
bin	-inf	0
bin	200	0
bin	400	0
bin	600	0
bin	800	0
bin	1000	0
bin	1200	0
bin	1400	0
bin	1600	1
bin	1800	1
bin	2000	0
bin	2200	2
bin	2400	2
bin	2600	1
bin	2800	7
bin	3000	3
bin	3200	4
bin	3400	7
bin	3600	17
bin	3800	14
bin	4000	16
bin	4200	19
bin	4400	32
bin	4600	21
bin	4800	29
bin	5000	39
bin	5200	41
bin	5400	57
bin	5600	48
bin	5800	43
bin	6000	64
bin	6200	74
bin	6400	85
bin	6600	65
bin	6800	72
bin	7000	57
bin	7200	60
bin	7400	66
bin	7600	58
bin	7800	68
bin	8000	46
bin	8200	56
bin	8400	41
bin	8600	26
bin	8800	45
bin	9000	20
bin	9200	19
bin	9400	21
bin	9600	10
bin	9800	15
bin	10000	10
bin	10200	5
bin	10400	7
bin	10600	3
bin	10800	5
bin	11000	3
bin	11200	4
bin	11400	2
bin	11600	0
bin	11800	0
bin	12000	2
bin	12200	0
bin	12400	0
bin	12600	0
bin	12800	0
bin	13000	0
bin	13200	0
bin	13400	0
scalar Network.switch_2.eth[2].phyLayer.phyHeaderChecker flowIncomingPacketLengths:sum 0
attr interpolationmode none
attr recordingmode sum
attr source "packetLength(demuxFlow(merge(packetPushedIn, packetPulledIn)))"
attr title "flow specific incoming packet lengths, sum"
attr unit b
statistic Network.switch_2.eth[2].phyLayer.phyHeaderChecker flowIncomingPacketLengths:histogram
field count 0
field mean -nan
field stddev -nan
field min -nan
field max -nan
field sum 0
field sqrsum 0
attr interpolationmode none
attr recordingmode histogram
attr source "packetLength(demuxFlow(merge(packetPushedIn, packetPulledIn)))"
attr title "flow specific incoming packet lengths"
attr unit b
bin	-inf	0
bin	0	0
bin	1	0
scalar Network.switch_2.eth[2].phyLayer.phyHeaderChecker droppedPackets:count 0
attr recordingmode count
attr source packetDropped
attr title "dropped packets, count"
attr unit pk
scalar Network.switch_2.eth[2].phyLayer.phyHeaderChecker droppedPacketLengths:sum 0
attr interpolationmode none
attr recordingmode sum
attr source packetLength(packetDropped)
attr title "dropped packet lengths, sum"
attr unit b
statistic Network.switch_2.eth[2].phyLayer.phyHeaderChecker droppedPacketLengths:histogram
field count 0
field mean -nan
field stddev -nan
field min -nan
field max -nan
field sum 0
field sqrsum 0
attr interpolationmode none
attr recordingmode histogram
attr source packetLength(packetDropped)
attr title "dropped packet lengths"
attr unit b
bin	-inf	0
bin	0	0
bin	1	0
scalar Network.switch_2.eth[2].phyLayer.phyHeaderChecker flowDroppedPacketLengths:sum 0
attr interpolationmode none
attr recordingmode sum
attr source packetLength(demuxFlow(packetDropped))
attr title "flow specific dropped packet lengths, sum"
attr unit b
statistic Network.switch_2.eth[2].phyLayer.phyHeaderChecker flowDroppedPacketLengths:histogram
field count 0
field mean -nan
field stddev -nan
field min -nan
field max -nan
field sum 0
field sqrsum 0
attr interpolationmode none
attr recordingmode histogram
attr source packetLength(demuxFlow(packetDropped))
attr title "flow specific dropped packet lengths"
attr unit b
bin	-inf	0
bin	0	0
bin	1	0
par Network.switch_2.eth[2].phyLayer.inboundEmitter typename "\"inet.protocolelement.common.PacketEmitter\""
par Network.switch_2.eth[2].phyLayer.inboundEmitter displayStringTextFormat "\"processed %p pk (%l)\""
par Network.switch_2.eth[2].phyLayer.inboundEmitter packetFilter "(omnetpp::cValueHolder)holder: \"*\""
par Network.switch_2.eth[2].phyLayer.inboundEmitter direction "\"inbound\""
attr enum undefined,inbound,outbound
par Network.switch_2.eth[2].phyLayer.inboundEmitter signalName "\"packetReceivedFromLower\""
scalar Network.switch_2.eth[2].phyLayer.inboundEmitter outgoingPackets:count 1413
attr recordingmode count
attr source "merge(packetPushedOut, packetPulledOut)"
attr title "outgoing packets, count"
attr unit pk
scalar Network.switch_2.eth[2].phyLayer.inboundEmitter outgoingPacketLengths:sum 9699928
attr interpolationmode none
attr recordingmode sum
attr source "packetLength(merge(packetPushedOut, packetPulledOut))"
attr title "outgoing packet lengths, sum"
attr unit b
statistic Network.switch_2.eth[2].phyLayer.inboundEmitter outgoingPacketLengths:histogram
field count 1413
field mean 6864.7756546355
field stddev 1634.6086982009
field min 1792
field max 12008
field sum 9699928
field sqrsum 70360616768
attr interpolationmode none
attr recordingmode histogram
attr source "packetLength(merge(packetPushedOut, packetPulledOut))"
attr title "outgoing packet lengths"
attr unit b
bin	-inf	0
bin	200	0
bin	400	0
bin	600	0
bin	800	0
bin	1000	0
bin	1200	0
bin	1400	0
bin	1600	1
bin	1800	1
bin	2000	0
bin	2200	2
bin	2400	2
bin	2600	1
bin	2800	7
bin	3000	3
bin	3200	4
bin	3400	7
bin	3600	17
bin	3800	14
bin	4000	16
bin	4200	19
bin	4400	32
bin	4600	21
bin	4800	29
bin	5000	39
bin	5200	41
bin	5400	57
bin	5600	48
bin	5800	43
bin	6000	64
bin	6200	74
bin	6400	85
bin	6600	65
bin	6800	72
bin	7000	57
bin	7200	60
bin	7400	66
bin	7600	58
bin	7800	68
bin	8000	46
bin	8200	56
bin	8400	41
bin	8600	26
bin	8800	45
bin	9000	20
bin	9200	19
bin	9400	21
bin	9600	10
bin	9800	15
bin	10000	10
bin	10200	5
bin	10400	7
bin	10600	3
bin	10800	5
bin	11000	3
bin	11200	4
bin	11400	2
bin	11600	0
bin	11800	0
bin	12000	2
bin	12200	0
bin	12400	0
bin	12600	0
bin	12800	0
bin	13000	0
bin	13200	0
bin	13400	0
scalar Network.switch_2.eth[2].phyLayer.inboundEmitter flowOutgoingPacketLengths:sum 0
attr interpolationmode none
attr recordingmode sum
attr source "packetLength(demuxFlow(merge(packetPushedOut, packetPulledOut)))"
attr title "flow specific outgoing packet lengths, sum"
attr unit b
statistic Network.switch_2.eth[2].phyLayer.inboundEmitter flowOutgoingPacketLengths:histogram
field count 0
field mean -nan
field stddev -nan
field min -nan
field max -nan
field sum 0
field sqrsum 0
attr interpolationmode none
attr recordingmode histogram
attr source "packetLength(demuxFlow(merge(packetPushedOut, packetPulledOut)))"
attr title "flow specific outgoing packet lengths"
attr unit b
bin	-inf	0
bin	0	0
bin	1	0
scalar Network.switch_2.eth[2].phyLayer.inboundEmitter incomingPackets:count 1413
attr recordingmode count
attr source "merge(packetPushedIn, packetPulledIn)"
attr title "incoming packets, count"
attr unit pk
scalar Network.switch_2.eth[2].phyLayer.inboundEmitter incomingPacketLengths:sum 9699928
attr interpolationmode none
attr recordingmode sum
attr source "packetLength(merge(packetPushedIn, packetPulledIn))"
attr title "incoming packet lengths, sum"
attr unit b
statistic Network.switch_2.eth[2].phyLayer.inboundEmitter incomingPacketLengths:histogram
field count 1413
field mean 6864.7756546355
field stddev 1634.6086982009
field min 1792
field max 12008
field sum 9699928
field sqrsum 70360616768
attr interpolationmode none
attr recordingmode histogram
attr source "packetLength(merge(packetPushedIn, packetPulledIn))"
attr title "incoming packet lengths"
attr unit b
bin	-inf	0
bin	200	0
bin	400	0
bin	600	0
bin	800	0
bin	1000	0
bin	1200	0
bin	1400	0
bin	1600	1
bin	1800	1
bin	2000	0
bin	2200	2
bin	2400	2
bin	2600	1
bin	2800	7
bin	3000	3
bin	3200	4
bin	3400	7
bin	3600	17
bin	3800	14
bin	4000	16
bin	4200	19
bin	4400	32
bin	4600	21
bin	4800	29
bin	5000	39
bin	5200	41
bin	5400	57
bin	5600	48
bin	5800	43
bin	6000	64
bin	6200	74
bin	6400	85
bin	6600	65
bin	6800	72
bin	7000	57
bin	7200	60
bin	7400	66
bin	7600	58
bin	7800	68
bin	8000	46
bin	8200	56
bin	8400	41
bin	8600	26
bin	8800	45
bin	9000	20
bin	9200	19
bin	9400	21
bin	9600	10
bin	9800	15
bin	10000	10
bin	10200	5
bin	10400	7
bin	10600	3
bin	10800	5
bin	11000	3
bin	11200	4
bin	11400	2
bin	11600	0
bin	11800	0
bin	12000	2
bin	12200	0
bin	12400	0
bin	12600	0
bin	12800	0
bin	13000	0
bin	13200	0
bin	13400	0
scalar Network.switch_2.eth[2].phyLayer.inboundEmitter flowIncomingPacketLengths:sum 0
attr interpolationmode none
attr recordingmode sum
attr source "packetLength(demuxFlow(merge(packetPushedIn, packetPulledIn)))"
attr title "flow specific incoming packet lengths, sum"
attr unit b
statistic Network.switch_2.eth[2].phyLayer.inboundEmitter flowIncomingPacketLengths:histogram
field count 0
field mean -nan
field stddev -nan
field min -nan
field max -nan
field sum 0
field sqrsum 0
attr interpolationmode none
attr recordingmode histogram
attr source "packetLength(demuxFlow(merge(packetPushedIn, packetPulledIn)))"
attr title "flow specific incoming packet lengths"
attr unit b
bin	-inf	0
bin	0	0
bin	1	0
par Network.switch_2.eth[2].phyLayer.receiver typename "\"inet.protocolelement.transceiver.PacketReceiver\""
par Network.switch_2.eth[2].phyLayer.receiver displayStringTextFormat "\"processed %p pk (%l)\""
par Network.switch_2.eth[2].phyLayer.receiver datarate 1e+07bps
attr unit bps
statistic Network.switch_2.eth[2].phyLayer.receiver receptionTime:histogram
field count 1413
field mean 0.00068647756546355
field stddev 0.00016346086982009
field min 0.0001792
field max 0.0012008
field sum 0.9699928
field sqrsum 0.00070360616768
attr interpolationmode none
attr recordingmode histogram
attr source packetDuration(receptionEnded)
attr title "reception time"
attr unit s
bin	-inf	0
bin	2e-05	0
bin	4e-05	0
bin	6e-05	0
bin	8e-05	0
bin	0.0001	0
bin	0.00012	0
bin	0.00014	0
bin	0.00016	1
bin	0.00018	1
bin	0.0002	0
bin	0.00022	2
bin	0.00024	2
bin	0.00026	1
bin	0.00028	7
bin	0.0003	3
bin	0.00032	4
bin	0.00034	7
bin	0.00036	17
bin	0.00038	14
bin	0.0004	16
bin	0.00042	19
bin	0.00044	32
bin	0.00046	21
bin	0.00048	30
bin	0.0005	41
bin	0.00052	41
bin	0.00054	58
bin	0.00056	44
bin	0.00058	47
bin	0.0006	61
bin	0.00062	79
bin	0.00064	82
bin	0.00066	63
bin	0.00068	73
bin	0.0007	59
bin	0.00072	59
bin	0.00074	67
bin	0.00076	57
bin	0.00078	69
bin	0.0008	43
bin	0.00082	56
bin	0.00084	43
bin	0.00086	25
bin	0.00088	44
bin	0.0009	20
bin	0.00092	19
bin	0.00094	22
bin	0.00096	10
bin	0.00098	14
bin	0.001	9
bin	0.00102	5
bin	0.00104	7
bin	0.00106	3
bin	0.00108	5
bin	0.0011	3
bin	0.00112	4
bin	0.00114	2
bin	0.00116	0
bin	0.00118	1
bin	0.0012	1
bin	0.00122	0
bin	0.00124	0
bin	0.00126	0
bin	0.00128	0
bin	0.0013	0
bin	0.00132	0
bin	0.00134	0
statistic Network.switch_2.eth[2].phyLayer.receiver flowReceptionTime:histogram
field count 0
field mean -nan
field stddev -nan
field min -nan
field max -nan
field sum 0
field sqrsum 0
attr interpolationmode none
attr recordingmode histogram
attr source packetDuration(demuxFlow(receptionEnded))
attr title "flow reception time"
attr unit s
bin	-inf	0
bin	0	0
bin	1	0
par Network.switch_2.eth[2].phyLayer typename "\"inet.physicallayer.wired.ethernet.EthernetPhyLayer\""
par Network.switch_2.eth[2].phyLayer bitrate this.bitrate
attr unit bps
par Network.switch_2.eth[2] typename "\"inet.linklayer.ethernet.LayeredEthernetInterface\""
par Network.switch_2.eth[2] displayStringTextFormat "\"%a (%i)\\n%m\""
par Network.switch_2.eth[2] recordPcap false
par Network.switch_2.eth[2] numPcapRecorders 0
par Network.switch_2.eth[2] protocol "\"ethernetmac\""
par Network.switch_2.eth[2] broadcast true
par Network.switch_2.eth[2] multicast true
par Network.switch_2.eth[2] address "\"0A-AA-00-00-00-0A\""
attr mutable ""
par Network.switch_2.eth[2] bitrate 1e+07bps
attr unit bps
par Network.switch_2.eth[2] mtu 1500B
attr unit B
par Network.switch_2.eth[2] interfaceTableModule "\"Network.switch_2.interfaceTable\""
scalar Network.switch_2.eth[2] packetDropInterfaceDown:count 0
attr interpolationmode none
attr recordingmode count
attr source packetDropReasonIsInterfaceDown(packetDropped)
attr title "packet drops: interface down, count"
scalar Network.switch_2.eth[2] packetDropInterfaceDown:sum(packetBytes) 0
attr interpolationmode none
attr recordingmode sum(packetBytes)
attr source packetDropReasonIsInterfaceDown(packetDropped)
attr title "packet drops: interface down, sum(packetBytes)"
scalar Network.switch_2.eth[2] packetDropNoCarrier:count 0
attr interpolationmode none
attr recordingmode count
attr source packetDropReasonIsNoCarrier(packetDropped)
attr title "packet drops: no carrier, count"
scalar Network.switch_2.eth[2] packetDropNoCarrier:sum(packetBytes) 0
attr interpolationmode none
attr recordingmode sum(packetBytes)
attr source packetDropReasonIsNoCarrier(packetDropped)
attr title "packet drops: no carrier, sum(packetBytes)"
par Network.switch_2 typename "\"inet.node.ethernet.EthernetSwitch\""
par Network.switch_2 recordPcap false
par Network.switch_2 numPcapRecorders 0
par Network.switch_2 numApps 0
par Network.switch_2 hasStatus false
par Network.switch_2 hasStp false
par Network.switch_2 hasGptp false
par Network.switch_2 hasCutthroughSwitching false
par Network.switch_2 fcsMode "\"declared\""
attr enum declared,computed
par Network.switch_2 spanningTreeProtocol "\"Stp\""
par Network.switch_2 numEthInterfaces 0
par Network typename "\"demo.simulations.Network\""
par Network recordPcap false
par Network numPcapRecorders 0
par Network hasGlobalArp true

